MODEL 1
REMARK VINA RESULT:      -6.0      0.000      0.000
REMARK WARNING: 32 MAX_TORS EXCEEDED!!!
REMARK  33 active torsions:
REMARK  status: ('A' for Active; 'I' for Inactive)
REMARK    1  A    between atoms: CA_2  and  C_8 
REMARK    2  A    between atoms: CA_2  and  CB_3 
REMARK    3  A    between atoms: CB_3  and  CG_4 
REMARK    4  A    between atoms: CG_4  and  CD_5 
REMARK       I    between atoms: C_8  and  N_10 
REMARK    5  A    between atoms: N_10  and  CA_11 
REMARK    6  A    between atoms: CA_11  and  C_12 
REMARK       I    between atoms: C_12  and  N_14 
REMARK    7  A    between atoms: N_14  and  CA_15 
REMARK    8  A    between atoms: CA_15  and  C_20 
REMARK    9  A    between atoms: CA_15  and  CB_16 
REMARK   10  A    between atoms: CB_16  and  CG_17 
REMARK       I    between atoms: C_20  and  N_22 
REMARK   11  A    between atoms: N_22  and  CA_23 
REMARK   12  A    between atoms: CA_23  and  CB_24 
REMARK   13  A    between atoms: CA_23  and  C_28 
REMARK   14  A    between atoms: CB_24  and  CG_25 
REMARK       I    between atoms: C_28  and  N_30 
REMARK   15  A    between atoms: N_30  and  CA_31 
REMARK   16  A    between atoms: CA_31  and  CB_32 
REMARK   17  A    between atoms: CA_31  and  C_39 
REMARK   18  A    between atoms: CB_32  and  CG_33 
REMARK   19  A    between atoms: CG_33  and  CD_34 
REMARK   20  A    between atoms: CD_34  and  NE_35 
REMARK       I    between atoms: C_39  and  N_41 
REMARK   21  A    between atoms: CA_42  and  C_46 
REMARK       I    between atoms: C_46  and  N_48 
REMARK   22  A    between atoms: N_48  and  CA_49 
REMARK   23  A    between atoms: CA_49  and  C_52 
REMARK   24  A    between atoms: CA_49  and  CB_50 
REMARK       I    between atoms: C_52  and  N_54 
REMARK   25  A    between atoms: N_54  and  CA_55 
REMARK   26  A    between atoms: CA_55  and  C_56 
REMARK       I    between atoms: C_56  and  N_58 
REMARK   27  A    between atoms: N_58  and  CA_59 
REMARK   28  A    between atoms: CA_59  and  C_60 
REMARK       I    between atoms: C_60  and  N_62 
REMARK   29  A    between atoms: N_62  and  CA_63 
REMARK   30  A    between atoms: CA_63  and  CB_64 
REMARK   31  A    between atoms: CA_63  and  C_66 
REMARK       I    between atoms: C_66  and  N_68 
REMARK   32  A    between atoms: N_68  and  CA_69 
REMARK   33  A    between atoms: CA_69  and  C_70 
ROOT
ATOM      1  CA  ARG     5      -4.192 -21.997   4.263  1.00  0.00     0.185 C 
ENDROOT
BRANCH   1   2
ATOM      2  N   ARG     5      -4.736 -20.883   5.060  1.00  0.00    -0.229 NA
ATOM      3  C   ASN     4      -4.989 -20.915   6.360  1.00  0.00     0.275 C 
ATOM      4  O   ASN     4      -5.044 -21.944   7.026  1.00  0.00    -0.268 OA
BRANCH   3   5
ATOM      5  CA  ASN     4      -5.541 -19.577   6.892  1.00  0.00     0.196 C 
BRANCH   5   6
ATOM      6  N   ASN     4      -4.446 -18.603   7.092  1.00  0.00    -0.228 NA
ATOM      7  C   LEU     3      -3.769 -18.491   8.232  1.00  0.00     0.274 C 
ATOM      8  O   LEU     3      -3.962 -19.179   9.239  1.00  0.00    -0.268 OA
BRANCH   7   9
ATOM      9  CA  LEU     3      -2.641 -17.461   8.213  1.00  0.00     0.186 C 
BRANCH   9  10
ATOM     10  N   LEU     3      -3.172 -16.154   7.765  1.00  0.00    -0.229 NA
ATOM     11  C   GLY     2      -2.468 -15.306   7.008  1.00  0.00     0.277 C 
ATOM     12  O   GLY     2      -1.398 -15.597   6.495  1.00  0.00    -0.268 OA
BRANCH  11  13
ATOM     13  CA  GLY     2      -3.161 -13.971   6.664  1.00  0.00     0.218 C 
BRANCH  13  14
ATOM     14  N   GLY     2      -3.615 -13.111   7.784  1.00  0.00    -0.226 NA
ATOM     15  C   GLU     1      -4.529 -12.148   7.613  1.00  0.00     0.289 C 
ATOM     16  O   GLU     1      -5.150 -12.047   6.569  1.00  0.00    -0.268 OA
BRANCH  15  17
ATOM     17  CA  GLU     1      -4.854 -11.209   8.805  1.00  0.00     0.381 C 
ATOM     18  N   GLU     1      -5.245 -11.924  10.033  1.00  0.00     0.626 N 
BRANCH  17  19
ATOM     19  CB  GLU     1      -3.638 -10.293   9.054  1.00  0.00     0.060 C 
BRANCH  19  20
ATOM     20  CG  GLU     1      -3.727  -8.805   8.682  1.00  0.00     0.100 C 
BRANCH  20  21
ATOM     21  CD  GLU     1      -4.651  -8.545   7.483  1.00  0.00     0.185 C 
ATOM     22  OE1 GLU     1      -4.204  -8.743   6.339  1.00  0.00    -0.647 OA
ATOM     23  OE2 GLU     1      -5.798  -8.117   7.701  1.00  0.00    -0.647 OA
ENDBRANCH  20  21
ENDBRANCH  19  20
ENDBRANCH  17  19
ENDBRANCH  15  17
ENDBRANCH  13  14
ENDBRANCH  11  13
ENDBRANCH   9  10
BRANCH   9  24
ATOM     24  CB  LEU     3      -2.054 -17.346   9.625  1.00  0.00     0.034 C 
BRANCH  24  25
ATOM     25  CG  LEU     3      -2.451 -16.054  10.361  1.00  0.00     0.002 C 
ATOM     26  CD1 LEU     3      -3.689 -16.317  11.217  1.00  0.00     0.000 C 
ATOM     27  CD2 LEU     3      -1.305 -15.541  11.239  1.00  0.00     0.000 C 
ENDBRANCH  24  25
ENDBRANCH   9  24
ENDBRANCH   7   9
ENDBRANCH   5   6
BRANCH   5  28
ATOM     28  CB  ASN     4      -6.607 -18.992   5.950  1.00  0.00     0.126 C 
BRANCH  28  29
ATOM     29  CG  ASN     4      -8.052 -19.216   6.436  1.00  0.00     0.276 C 
ATOM     30  ND2 ASN     4      -8.256 -20.266   7.185  1.00  0.00    -0.107 N 
ATOM     31  OD1 ASN     4      -8.969 -18.448   6.214  1.00  0.00    -0.269 OA
ENDBRANCH  28  29
ENDBRANCH   5  28
ENDBRANCH   3   5
ENDBRANCH   1   2
BRANCH   1  32
ATOM     32  CB  ARG     5      -4.149 -21.624   2.777  1.00  0.00     0.036 C 
BRANCH  32  33
ATOM     33  CG  ARG     5      -3.299 -22.568   1.926  1.00  0.00     0.029 C 
BRANCH  33  34
ATOM     34  CD  ARG     5      -4.175 -23.221   0.862  1.00  0.00     0.145 C 
BRANCH  34  35
ATOM     35  NE  ARG     5      -4.396 -24.662   1.133  1.00  0.00    -0.083 NA
ATOM     36  CZ  ARG     5      -5.570 -25.202   1.489  1.00  0.00     0.782 C 
ATOM     37  NH2 ARG     5      -5.754 -26.533   1.478  1.00  0.00     0.063 N 
ATOM     38  NH1 ARG     5      -6.629 -24.446   1.744  1.00  0.00     0.063 N 
ENDBRANCH  34  35
ENDBRANCH  33  34
ENDBRANCH  32  33
ENDBRANCH   1  32
BRANCH   1  39
ATOM     39  C   ARG     5      -2.770 -22.334   4.751  1.00  0.00     0.256 C 
ATOM     40  O   ARG     5      -1.990 -21.422   5.040  1.00  0.00    -0.270 OA
ATOM     41  N   PRO     6      -2.478 -23.625   4.938  1.00  0.00    -0.312 N 
ATOM     42  CA  PRO     6      -1.153 -24.123   5.369  1.00  0.00     0.165 C 
ATOM     43  CD  PRO     6      -3.452 -24.738   4.905  1.00  0.00     0.105 C 
ATOM     44  CB  PRO     6      -1.280 -25.647   5.342  1.00  0.00     0.034 C 
ATOM     45  CG  PRO     6      -2.752 -25.872   5.655  1.00  0.00     0.027 C 
BRANCH  42  46
ATOM     46  C   PRO     6      -0.039 -23.649   4.421  1.00  0.00     0.272 C 
ATOM     47  N   SER     7       1.121 -23.254   4.927  1.00  0.00    -0.226 NA
ATOM     48  O   PRO     6      -0.263 -23.536   3.213  1.00  0.00    -0.269 OA
BRANCH  47  49
ATOM     49  CA  SER     7       1.493 -23.202   6.362  1.00  0.00     0.219 C 
BRANCH  49  50
ATOM     50  C   SER     7       1.043 -21.889   7.026  1.00  0.00     0.277 C 
ATOM     51  O   SER     7       0.924 -21.843   8.246  1.00  0.00    -0.268 OA
ATOM     52  N   GLY     8       1.041 -20.818   6.244  1.00  0.00    -0.226 NA
BRANCH  52  53
ATOM     53  CA  GLY     8       0.437 -19.529   6.675  1.00  0.00     0.218 C 
BRANCH  53  54
ATOM     54  C   GLY     8       1.373 -18.433   7.216  1.00  0.00     0.277 C 
ATOM     55  N   GLY     9       2.692 -18.634   7.083  1.00  0.00    -0.226 NA
ATOM     56  O   GLY     8       0.908 -17.415   7.702  1.00  0.00    -0.268 OA
BRANCH  55  57
ATOM     57  CA  GLY     9       3.706 -17.687   7.590  1.00  0.00     0.218 C 
BRANCH  57  58
ATOM     58  C   GLY     9       4.505 -17.041   6.433  1.00  0.00     0.277 C 
ATOM     59  O   GLY     9       3.926 -16.313   5.637  1.00  0.00    -0.268 OA
ATOM     60  N   CYS    10       5.760 -17.381   6.175  1.00  0.00    -0.228 NA
BRANCH  60  61
ATOM     61  CA  CYS    10       6.588 -18.402   6.863  1.00  0.00     0.198 C 
BRANCH  61  62
ATOM     62  CB  CYS    10       6.773 -19.669   6.019  1.00  0.00     0.103 C 
ATOM     63  SG  CYS    10       6.325 -21.271   6.771  1.00  0.00    -0.080 SA
ENDBRANCH  61  62
BRANCH  61  64
ATOM     64  C   CYS    10       8.013 -17.942   7.178  1.00  0.00     0.275 C 
ATOM     65  O   CYS    10       8.963 -18.567   6.709  1.00  0.00    -0.268 OA
ATOM     66  N   GLY    11       8.083 -16.718   7.675  1.00  0.00    -0.225 NA
BRANCH  66  67
ATOM     67  CA  GLY    11       9.114 -16.344   8.653  1.00  0.00     0.226 C 
BRANCH  67  68
ATOM     68  C   GLY    11       8.855 -14.858   8.947  1.00  0.00     0.211 C 
ATOM     69  O2  GLY    11       8.332 -14.208   8.016  1.00  0.00    -0.646 OA
ATOM     70  O1  GLY    11       8.832 -14.528  10.155  1.00  0.00    -0.646 OA
ENDBRANCH  67  68
ENDBRANCH  66  67
ENDBRANCH  61  64
ENDBRANCH  60  61
ENDBRANCH  57  58
ENDBRANCH  55  57
ENDBRANCH  53  54
ENDBRANCH  52  53
ENDBRANCH  49  50
BRANCH  49  71
ATOM     71  CB  SER     7       3.006 -23.317   6.559  1.00  0.00     0.216 C 
ATOM     72  OG  SER     7       3.578 -24.080   5.496  1.00  0.00    -0.218 OA
ENDBRANCH  49  71
ENDBRANCH  47  49
ENDBRANCH  42  46
ENDBRANCH   1  39
TORSDOF 33
ENDMDL
MODEL 2
REMARK VINA RESULT:      -5.9      4.194     12.625
REMARK WARNING: 32 MAX_TORS EXCEEDED!!!
REMARK  33 active torsions:
REMARK  status: ('A' for Active; 'I' for Inactive)
REMARK    1  A    between atoms: CA_2  and  C_8 
REMARK    2  A    between atoms: CA_2  and  CB_3 
REMARK    3  A    between atoms: CB_3  and  CG_4 
REMARK    4  A    between atoms: CG_4  and  CD_5 
REMARK       I    between atoms: C_8  and  N_10 
REMARK    5  A    between atoms: N_10  and  CA_11 
REMARK    6  A    between atoms: CA_11  and  C_12 
REMARK       I    between atoms: C_12  and  N_14 
REMARK    7  A    between atoms: N_14  and  CA_15 
REMARK    8  A    between atoms: CA_15  and  C_20 
REMARK    9  A    between atoms: CA_15  and  CB_16 
REMARK   10  A    between atoms: CB_16  and  CG_17 
REMARK       I    between atoms: C_20  and  N_22 
REMARK   11  A    between atoms: N_22  and  CA_23 
REMARK   12  A    between atoms: CA_23  and  CB_24 
REMARK   13  A    between atoms: CA_23  and  C_28 
REMARK   14  A    between atoms: CB_24  and  CG_25 
REMARK       I    between atoms: C_28  and  N_30 
REMARK   15  A    between atoms: N_30  and  CA_31 
REMARK   16  A    between atoms: CA_31  and  CB_32 
REMARK   17  A    between atoms: CA_31  and  C_39 
REMARK   18  A    between atoms: CB_32  and  CG_33 
REMARK   19  A    between atoms: CG_33  and  CD_34 
REMARK   20  A    between atoms: CD_34  and  NE_35 
REMARK       I    between atoms: C_39  and  N_41 
REMARK   21  A    between atoms: CA_42  and  C_46 
REMARK       I    between atoms: C_46  and  N_48 
REMARK   22  A    between atoms: N_48  and  CA_49 
REMARK   23  A    between atoms: CA_49  and  C_52 
REMARK   24  A    between atoms: CA_49  and  CB_50 
REMARK       I    between atoms: C_52  and  N_54 
REMARK   25  A    between atoms: N_54  and  CA_55 
REMARK   26  A    between atoms: CA_55  and  C_56 
REMARK       I    between atoms: C_56  and  N_58 
REMARK   27  A    between atoms: N_58  and  CA_59 
REMARK   28  A    between atoms: CA_59  and  C_60 
REMARK       I    between atoms: C_60  and  N_62 
REMARK   29  A    between atoms: N_62  and  CA_63 
REMARK   30  A    between atoms: CA_63  and  CB_64 
REMARK   31  A    between atoms: CA_63  and  C_66 
REMARK       I    between atoms: C_66  and  N_68 
REMARK   32  A    between atoms: N_68  and  CA_69 
REMARK   33  A    between atoms: CA_69  and  C_70 
ROOT
ATOM      1  CA  ARG     5      -2.405 -16.320   7.987  1.00  0.00     0.185 C 
ENDROOT
BRANCH   1   2
ATOM      2  N   ARG     5      -3.483 -17.200   7.497  1.00  0.00    -0.229 NA
ATOM      3  C   ASN     4      -3.777 -18.398   7.976  1.00  0.00     0.275 C 
ATOM      4  O   ASN     4      -3.043 -19.045   8.716  1.00  0.00    -0.268 OA
BRANCH   3   5
ATOM      5  CA  ASN     4      -4.971 -19.052   7.250  1.00  0.00     0.196 C 
BRANCH   5   6
ATOM      6  N   ASN     4      -4.514 -20.161   6.386  1.00  0.00    -0.228 NA
ATOM      7  C   LEU     3      -5.088 -20.465   5.225  1.00  0.00     0.274 C 
ATOM      8  O   LEU     3      -6.048 -19.866   4.732  1.00  0.00    -0.268 OA
BRANCH   7   9
ATOM      9  CA  LEU     3      -4.428 -21.613   4.461  1.00  0.00     0.186 C 
BRANCH   9  10
ATOM     10  N   LEU     3      -3.584 -22.403   5.385  1.00  0.00    -0.229 NA
ATOM     11  C   GLY     2      -2.285 -22.628   5.167  1.00  0.00     0.277 C 
ATOM     12  O   GLY     2      -1.650 -22.078   4.280  1.00  0.00    -0.268 OA
BRANCH  11  13
ATOM     13  CA  GLY     2      -1.565 -23.504   6.215  1.00  0.00     0.218 C 
BRANCH  13  14
ATOM     14  N   GLY     2      -0.910 -24.750   5.751  1.00  0.00    -0.226 NA
ATOM     15  C   GLU     1       0.334 -24.757   5.257  1.00  0.00     0.289 C 
ATOM     16  O   GLU     1       1.043 -23.766   5.322  1.00  0.00    -0.268 OA
BRANCH  15  17
ATOM     17  CA  GLU     1       0.899 -26.080   4.675  1.00  0.00     0.381 C 
ATOM     18  N   GLU     1       0.174 -27.281   5.125  1.00  0.00     0.626 N 
BRANCH  17  19
ATOM     19  CB  GLU     1       0.908 -25.974   3.136  1.00  0.00     0.060 C 
BRANCH  19  20
ATOM     20  CG  GLU     1      -0.381 -26.266   2.353  1.00  0.00     0.100 C 
BRANCH  20  21
ATOM     21  CD  GLU     1      -1.116 -24.990   1.919  1.00  0.00     0.185 C 
ATOM     22  OE1 GLU     1      -2.338 -25.059   1.692  1.00  0.00    -0.647 OA
ATOM     23  OE2 GLU     1      -0.457 -23.945   1.780  1.00  0.00    -0.647 OA
ENDBRANCH  20  21
ENDBRANCH  19  20
ENDBRANCH  17  19
ENDBRANCH  15  17
ENDBRANCH  13  14
ENDBRANCH  11  13
ENDBRANCH   9  10
BRANCH   9  24
ATOM     24  CB  LEU     3      -5.525 -22.494   3.850  1.00  0.00     0.034 C 
BRANCH  24  25
ATOM     25  CG  LEU     3      -5.357 -22.739   2.340  1.00  0.00     0.002 C 
ATOM     26  CD1 LEU     3      -6.587 -22.219   1.599  1.00  0.00     0.000 C 
ATOM     27  CD2 LEU     3      -4.094 -22.054   1.804  1.00  0.00     0.000 C 
ENDBRANCH  24  25
ENDBRANCH   9  24
ENDBRANCH   7   9
ENDBRANCH   5   6
BRANCH   5  28
ATOM     28  CB  ASN     4      -6.029 -19.556   8.246  1.00  0.00     0.126 C 
BRANCH  28  29
ATOM     29  CG  ASN     4      -7.294 -18.678   8.304  1.00  0.00     0.276 C 
ATOM     30  ND2 ASN     4      -8.084 -18.730   7.265  1.00  0.00    -0.107 N 
ATOM     31  OD1 ASN     4      -7.612 -18.009   9.269  1.00  0.00    -0.269 OA
ENDBRANCH  28  29
ENDBRANCH   5  28
ENDBRANCH   3   5
ENDBRANCH   1   2
BRANCH   1  32
ATOM     32  CB  ARG     5      -1.226 -16.318   7.007  1.00  0.00     0.036 C 
BRANCH  32  33
ATOM     33  CG  ARG     5      -0.197 -17.417   7.276  1.00  0.00     0.029 C 
BRANCH  33  34
ATOM     34  CD  ARG     5       0.909 -16.869   8.171  1.00  0.00     0.145 C 
BRANCH  34  35
ATOM     35  NE  ARG     5       2.258 -17.191   7.646  1.00  0.00    -0.083 NA
ATOM     36  CZ  ARG     5       3.093 -18.093   8.184  1.00  0.00     0.782 C 
ATOM     37  NH2 ARG     5       4.186 -18.508   7.522  1.00  0.00     0.063 N 
ATOM     38  NH1 ARG     5       2.809 -18.701   9.327  1.00  0.00     0.063 N 
ENDBRANCH  34  35
ENDBRANCH  33  34
ENDBRANCH  32  33
ENDBRANCH   1  32
BRANCH   1  39
ATOM     39  C   ARG     5      -2.944 -14.886   8.147  1.00  0.00     0.256 C 
ATOM     40  O   ARG     5      -3.042 -14.154   7.158  1.00  0.00    -0.270 OA
ATOM     41  N   PRO     6      -3.383 -14.531   9.359  1.00  0.00    -0.312 N 
ATOM     42  CA  PRO     6      -3.899 -13.184   9.694  1.00  0.00     0.165 C 
ATOM     43  CD  PRO     6      -3.576 -15.447  10.504  1.00  0.00     0.105 C 
ATOM     44  CB  PRO     6      -4.176 -13.234  11.197  1.00  0.00     0.034 C 
ATOM     45  CG  PRO     6      -4.534 -14.695  11.430  1.00  0.00     0.027 C 
BRANCH  42  46
ATOM     46  C   PRO     6      -2.871 -12.090   9.362  1.00  0.00     0.272 C 
ATOM     47  N   SER     7      -3.289 -10.929   8.878  1.00  0.00    -0.226 NA
ATOM     48  O   PRO     6      -1.663 -12.332   9.444  1.00  0.00    -0.269 OA
BRANCH  47  49
ATOM     49  CA  SER     7      -4.692 -10.538   8.596  1.00  0.00     0.219 C 
BRANCH  49  50
ATOM     50  C   SER     7      -5.023 -10.625   7.096  1.00  0.00     0.277 C 
ATOM     51  O   SER     7      -4.892  -9.628   6.394  1.00  0.00    -0.268 OA
ATOM     52  N   GLY     8      -5.206 -11.847   6.615  1.00  0.00    -0.226 NA
BRANCH  52  53
ATOM     53  CA  GLY     8      -5.735 -12.083   5.245  1.00  0.00     0.218 C 
BRANCH  53  54
ATOM     54  C   GLY     8      -7.217 -12.468   5.096  1.00  0.00     0.277 C 
ATOM     55  N   GLY     9      -7.487 -13.716   4.686  1.00  0.00    -0.226 NA
ATOM     56  O   GLY     8      -8.091 -11.668   5.387  1.00  0.00    -0.268 OA
BRANCH  55  57
ATOM     57  CA  GLY     9      -8.861 -14.211   4.462  1.00  0.00     0.218 C 
BRANCH  57  58
ATOM     58  C   GLY     9      -9.140 -15.495   5.279  1.00  0.00     0.277 C 
ATOM     59  O   GLY     9      -9.306 -16.556   4.691  1.00  0.00    -0.268 OA
ATOM     60  N   CYS    10      -9.372 -15.456   6.584  1.00  0.00    -0.228 NA
BRANCH  60  61
ATOM     61  CA  CYS    10      -9.446 -14.263   7.461  1.00  0.00     0.198 C 
BRANCH  61  62
ATOM     62  CB  CYS    10     -10.775 -14.178   8.221  1.00  0.00     0.103 C 
ATOM     63  SG  CYS    10     -11.900 -12.796   7.826  1.00  0.00    -0.080 SA
ENDBRANCH  61  62
BRANCH  61  64
ATOM     64  C   CYS    10      -8.378 -14.225   8.556  1.00  0.00     0.275 C 
ATOM     65  O   CYS    10      -7.204 -14.033   8.244  1.00  0.00    -0.268 OA
ATOM     66  N   GLY    11      -8.868 -14.091   9.778  1.00  0.00    -0.225 NA
BRANCH  66  67
ATOM     67  CA  GLY    11      -8.213 -14.706  10.941  1.00  0.00     0.226 C 
BRANCH  67  68
ATOM     68  C   GLY    11      -8.367 -13.675  12.069  1.00  0.00     0.211 C 
ATOM     69  O2  GLY    11      -7.863 -12.553  11.847  1.00  0.00    -0.646 OA
ATOM     70  O1  GLY    11      -9.268 -13.905  12.909  1.00  0.00    -0.646 OA
ENDBRANCH  67  68
ENDBRANCH  66  67
ENDBRANCH  61  64
ENDBRANCH  60  61
ENDBRANCH  57  58
ENDBRANCH  55  57
ENDBRANCH  53  54
ENDBRANCH  52  53
ENDBRANCH  49  50
BRANCH  49  71
ATOM     71  CB  SER     7      -4.981  -9.104   9.045  1.00  0.00     0.216 C 
ATOM     72  OG  SER     7      -3.757  -8.433   9.347  1.00  0.00    -0.218 OA
ENDBRANCH  49  71
ENDBRANCH  47  49
ENDBRANCH  42  46
ENDBRANCH   1  39
TORSDOF 33
ENDMDL
MODEL 3
REMARK VINA RESULT:      -5.9      4.718     13.507
REMARK WARNING: 32 MAX_TORS EXCEEDED!!!
REMARK  33 active torsions:
REMARK  status: ('A' for Active; 'I' for Inactive)
REMARK    1  A    between atoms: CA_2  and  C_8 
REMARK    2  A    between atoms: CA_2  and  CB_3 
REMARK    3  A    between atoms: CB_3  and  CG_4 
REMARK    4  A    between atoms: CG_4  and  CD_5 
REMARK       I    between atoms: C_8  and  N_10 
REMARK    5  A    between atoms: N_10  and  CA_11 
REMARK    6  A    between atoms: CA_11  and  C_12 
REMARK       I    between atoms: C_12  and  N_14 
REMARK    7  A    between atoms: N_14  and  CA_15 
REMARK    8  A    between atoms: CA_15  and  C_20 
REMARK    9  A    between atoms: CA_15  and  CB_16 
REMARK   10  A    between atoms: CB_16  and  CG_17 
REMARK       I    between atoms: C_20  and  N_22 
REMARK   11  A    between atoms: N_22  and  CA_23 
REMARK   12  A    between atoms: CA_23  and  CB_24 
REMARK   13  A    between atoms: CA_23  and  C_28 
REMARK   14  A    between atoms: CB_24  and  CG_25 
REMARK       I    between atoms: C_28  and  N_30 
REMARK   15  A    between atoms: N_30  and  CA_31 
REMARK   16  A    between atoms: CA_31  and  CB_32 
REMARK   17  A    between atoms: CA_31  and  C_39 
REMARK   18  A    between atoms: CB_32  and  CG_33 
REMARK   19  A    between atoms: CG_33  and  CD_34 
REMARK   20  A    between atoms: CD_34  and  NE_35 
REMARK       I    between atoms: C_39  and  N_41 
REMARK   21  A    between atoms: CA_42  and  C_46 
REMARK       I    between atoms: C_46  and  N_48 
REMARK   22  A    between atoms: N_48  and  CA_49 
REMARK   23  A    between atoms: CA_49  and  C_52 
REMARK   24  A    between atoms: CA_49  and  CB_50 
REMARK       I    between atoms: C_52  and  N_54 
REMARK   25  A    between atoms: N_54  and  CA_55 
REMARK   26  A    between atoms: CA_55  and  C_56 
REMARK       I    between atoms: C_56  and  N_58 
REMARK   27  A    between atoms: N_58  and  CA_59 
REMARK   28  A    between atoms: CA_59  and  C_60 
REMARK       I    between atoms: C_60  and  N_62 
REMARK   29  A    between atoms: N_62  and  CA_63 
REMARK   30  A    between atoms: CA_63  and  CB_64 
REMARK   31  A    between atoms: CA_63  and  C_66 
REMARK       I    between atoms: C_66  and  N_68 
REMARK   32  A    between atoms: N_68  and  CA_69 
REMARK   33  A    between atoms: CA_69  and  C_70 
ROOT
ATOM      1  CA  ARG     5       4.584 -19.650   9.398  1.00  0.00     0.185 C 
ENDROOT
BRANCH   1   2
ATOM      2  N   ARG     5       5.549 -18.861   8.611  1.00  0.00    -0.229 NA
ATOM      3  C   ASN     4       6.353 -19.339   7.673  1.00  0.00     0.275 C 
ATOM      4  O   ASN     4       6.587 -20.532   7.507  1.00  0.00    -0.268 OA
BRANCH   3   5
ATOM      5  CA  ASN     4       7.232 -18.246   7.029  1.00  0.00     0.196 C 
BRANCH   5   6
ATOM      6  N   ASN     4       8.411 -17.959   7.873  1.00  0.00    -0.228 NA
ATOM      7  C   LEU     3       8.759 -16.730   8.246  1.00  0.00     0.274 C 
ATOM      8  O   LEU     3       8.147 -15.700   7.946  1.00  0.00    -0.268 OA
BRANCH   7   9
ATOM      9  CA  LEU     3       9.979 -16.656   9.162  1.00  0.00     0.186 C 
BRANCH   9  10
ATOM     10  N   LEU     3      10.919 -15.632   8.654  1.00  0.00    -0.229 NA
ATOM     11  C   GLY     2      12.113 -15.937   8.136  1.00  0.00     0.277 C 
ATOM     12  O   GLY     2      12.465 -17.082   7.894  1.00  0.00    -0.268 OA
BRANCH  11  13
ATOM     13  CA  GLY     2      12.981 -14.742   7.688  1.00  0.00     0.218 C 
BRANCH  13  14
ATOM     14  N   GLY     2      13.077 -14.453   6.237  1.00  0.00    -0.226 NA
ATOM     15  C   GLU     1      13.819 -13.446   5.762  1.00  0.00     0.289 C 
ATOM     16  O   GLU     1      14.581 -12.828   6.487  1.00  0.00    -0.268 OA
BRANCH  15  17
ATOM     17  CA  GLU     1      13.764 -13.131   4.243  1.00  0.00     0.381 C 
ATOM     18  N   GLU     1      14.624 -14.004   3.425  1.00  0.00     0.626 N 
BRANCH  17  19
ATOM     19  CB  GLU     1      12.294 -13.200   3.781  1.00  0.00     0.060 C 
BRANCH  19  20
ATOM     20  CG  GLU     1      11.933 -12.779   2.348  1.00  0.00     0.100 C 
BRANCH  20  21
ATOM     21  CD  GLU     1      11.229 -13.893   1.559  1.00  0.00     0.185 C 
ATOM     22  OE1 GLU     1       9.985 -13.897   1.525  1.00  0.00    -0.647 OA
ATOM     23  OE2 GLU     1      11.928 -14.764   1.012  1.00  0.00    -0.647 OA
ENDBRANCH  20  21
ENDBRANCH  19  20
ENDBRANCH  17  19
ENDBRANCH  15  17
ENDBRANCH  13  14
ENDBRANCH  11  13
ENDBRANCH   9  10
BRANCH   9  24
ATOM     24  CB  LEU     3       9.511 -16.299  10.579  1.00  0.00     0.034 C 
BRANCH  24  25
ATOM     25  CG  LEU     3       9.551 -17.482  11.563  1.00  0.00     0.002 C 
ATOM     26  CD1 LEU     3       8.124 -17.896  11.918  1.00  0.00     0.000 C 
ATOM     27  CD2 LEU     3      10.311 -18.673  10.968  1.00  0.00     0.000 C 
ENDBRANCH  24  25
ENDBRANCH   9  24
ENDBRANCH   7   9
ENDBRANCH   5   6
BRANCH   5  28
ATOM     28  CB  ASN     4       7.677 -18.645   5.612  1.00  0.00     0.126 C 
BRANCH  28  29
ATOM     29  CG  ASN     4       9.145 -19.107   5.531  1.00  0.00     0.276 C 
ATOM     30  ND2 ASN     4       9.353 -20.395   5.607  1.00  0.00    -0.107 N 
ATOM     31  OD1 ASN     4      10.083 -18.357   5.341  1.00  0.00    -0.269 OA
ENDBRANCH  28  29
ENDBRANCH   5  28
ENDBRANCH   3   5
ENDBRANCH   1   2
BRANCH   1  32
ATOM     32  CB  ARG     5       4.748 -19.360  10.895  1.00  0.00     0.036 C 
BRANCH  32  33
ATOM     33  CG  ARG     5       5.288 -20.544  11.698  1.00  0.00     0.029 C 
BRANCH  33  34
ATOM     34  CD  ARG     5       5.951 -21.540  10.752  1.00  0.00     0.145 C 
BRANCH  34  35
ATOM     35  NE  ARG     5       7.430 -21.436  10.784  1.00  0.00    -0.083 NA
ATOM     36  CZ  ARG     5       8.240 -22.260  11.463  1.00  0.00     0.782 C 
ATOM     37  NH2 ARG     5       9.567 -22.260  11.252  1.00  0.00     0.063 N 
ATOM     38  NH1 ARG     5       7.756 -23.191  12.274  1.00  0.00     0.063 N 
ENDBRANCH  34  35
ENDBRANCH  33  34
ENDBRANCH  32  33
ENDBRANCH   1  32
BRANCH   1  39
ATOM     39  C   ARG     5       3.151 -19.297   8.959  1.00  0.00     0.256 C 
ATOM     40  O   ARG     5       2.623 -18.257   9.366  1.00  0.00    -0.270 OA
ATOM     41  N   PRO     6       2.572 -20.099   8.060  1.00  0.00    -0.312 N 
ATOM     42  CA  PRO     6       1.191 -19.925   7.557  1.00  0.00     0.165 C 
ATOM     43  CD  PRO     6       3.252 -21.177   7.309  1.00  0.00     0.105 C 
ATOM     44  CB  PRO     6       0.953 -21.127   6.641  1.00  0.00     0.034 C 
ATOM     45  CG  PRO     6       2.345 -21.427   6.104  1.00  0.00     0.027 C 
BRANCH  42  46
ATOM     46  C   PRO     6       0.173 -19.903   8.709  1.00  0.00     0.272 C 
ATOM     47  N   SER     7      -0.530 -18.801   8.935  1.00  0.00    -0.226 NA
ATOM     48  O   PRO     6       0.091 -20.864   9.479  1.00  0.00    -0.269 OA
BRANCH  47  49
ATOM     49  CA  SER     7      -0.446 -17.525   8.185  1.00  0.00     0.219 C 
BRANCH  49  50
ATOM     50  C   SER     7      -0.301 -16.314   9.124  1.00  0.00     0.277 C 
ATOM     51  O   SER     7       0.563 -15.475   8.893  1.00  0.00    -0.268 OA
ATOM     52  N   GLY     8      -1.285 -16.138   9.995  1.00  0.00    -0.226 NA
BRANCH  52  53
ATOM     53  CA  GLY     8      -1.191 -15.148  11.100  1.00  0.00     0.218 C 
BRANCH  53  54
ATOM     54  C   GLY     8      -1.793 -13.749  10.875  1.00  0.00     0.277 C 
ATOM     55  N   GLY     9      -2.742 -13.635   9.934  1.00  0.00    -0.226 NA
ATOM     56  O   GLY     8      -1.437 -12.810  11.568  1.00  0.00    -0.268 OA
BRANCH  55  57
ATOM     57  CA  GLY     9      -3.379 -12.350   9.584  1.00  0.00     0.218 C 
BRANCH  57  58
ATOM     58  C   GLY     9      -4.904 -12.385   9.844  1.00  0.00     0.277 C 
ATOM     59  O   GLY     9      -5.318 -12.317  10.994  1.00  0.00    -0.268 OA
ATOM     60  N   CYS    10      -5.771 -12.653   8.878  1.00  0.00    -0.228 NA
BRANCH  60  61
ATOM     61  CA  CYS    10      -5.484 -12.990   7.462  1.00  0.00     0.198 C 
BRANCH  61  62
ATOM     62  CB  CYS    10      -5.892 -14.426   7.109  1.00  0.00     0.103 C 
ATOM     63  SG  CYS    10      -5.181 -15.785   8.099  1.00  0.00    -0.080 SA
ENDBRANCH  61  62
BRANCH  61  64
ATOM     64  C   CYS    10      -6.233 -12.121   6.449  1.00  0.00     0.275 C 
ATOM     65  O   CYS    10      -6.109 -10.899   6.499  1.00  0.00    -0.268 OA
ATOM     66  N   GLY    11      -6.700 -12.794   5.410  1.00  0.00    -0.225 NA
BRANCH  66  67
ATOM     67  CA  GLY    11      -7.950 -12.405   4.742  1.00  0.00     0.226 C 
BRANCH  67  68
ATOM     68  C   GLY    11      -9.053 -12.706   5.768  1.00  0.00     0.211 C 
ATOM     69  O2  GLY    11      -9.704 -11.715   6.166  1.00  0.00    -0.646 OA
ATOM     70  O1  GLY    11      -9.445 -13.894   5.827  1.00  0.00    -0.646 OA
ENDBRANCH  67  68
ENDBRANCH  66  67
ENDBRANCH  61  64
ENDBRANCH  60  61
ENDBRANCH  57  58
ENDBRANCH  55  57
ENDBRANCH  53  54
ENDBRANCH  52  53
ENDBRANCH  49  50
BRANCH  49  71
ATOM     71  CB  SER     7      -1.691 -17.290   7.327  1.00  0.00     0.216 C 
ATOM     72  OG  SER     7      -1.517 -16.119   6.528  1.00  0.00    -0.218 OA
ENDBRANCH  49  71
ENDBRANCH  47  49
ENDBRANCH  42  46
ENDBRANCH   1  39
TORSDOF 33
ENDMDL
MODEL 4
REMARK VINA RESULT:      -5.7      4.686     13.139
REMARK WARNING: 32 MAX_TORS EXCEEDED!!!
REMARK  33 active torsions:
REMARK  status: ('A' for Active; 'I' for Inactive)
REMARK    1  A    between atoms: CA_2  and  C_8 
REMARK    2  A    between atoms: CA_2  and  CB_3 
REMARK    3  A    between atoms: CB_3  and  CG_4 
REMARK    4  A    between atoms: CG_4  and  CD_5 
REMARK       I    between atoms: C_8  and  N_10 
REMARK    5  A    between atoms: N_10  and  CA_11 
REMARK    6  A    between atoms: CA_11  and  C_12 
REMARK       I    between atoms: C_12  and  N_14 
REMARK    7  A    between atoms: N_14  and  CA_15 
REMARK    8  A    between atoms: CA_15  and  C_20 
REMARK    9  A    between atoms: CA_15  and  CB_16 
REMARK   10  A    between atoms: CB_16  and  CG_17 
REMARK       I    between atoms: C_20  and  N_22 
REMARK   11  A    between atoms: N_22  and  CA_23 
REMARK   12  A    between atoms: CA_23  and  CB_24 
REMARK   13  A    between atoms: CA_23  and  C_28 
REMARK   14  A    between atoms: CB_24  and  CG_25 
REMARK       I    between atoms: C_28  and  N_30 
REMARK   15  A    between atoms: N_30  and  CA_31 
REMARK   16  A    between atoms: CA_31  and  CB_32 
REMARK   17  A    between atoms: CA_31  and  C_39 
REMARK   18  A    between atoms: CB_32  and  CG_33 
REMARK   19  A    between atoms: CG_33  and  CD_34 
REMARK   20  A    between atoms: CD_34  and  NE_35 
REMARK       I    between atoms: C_39  and  N_41 
REMARK   21  A    between atoms: CA_42  and  C_46 
REMARK       I    between atoms: C_46  and  N_48 
REMARK   22  A    between atoms: N_48  and  CA_49 
REMARK   23  A    between atoms: CA_49  and  C_52 
REMARK   24  A    between atoms: CA_49  and  CB_50 
REMARK       I    between atoms: C_52  and  N_54 
REMARK   25  A    between atoms: N_54  and  CA_55 
REMARK   26  A    between atoms: CA_55  and  C_56 
REMARK       I    between atoms: C_56  and  N_58 
REMARK   27  A    between atoms: N_58  and  CA_59 
REMARK   28  A    between atoms: CA_59  and  C_60 
REMARK       I    between atoms: C_60  and  N_62 
REMARK   29  A    between atoms: N_62  and  CA_63 
REMARK   30  A    between atoms: CA_63  and  CB_64 
REMARK   31  A    between atoms: CA_63  and  C_66 
REMARK       I    between atoms: C_66  and  N_68 
REMARK   32  A    between atoms: N_68  and  CA_69 
REMARK   33  A    between atoms: CA_69  and  C_70 
ROOT
ATOM      1  CA  ARG     5       4.853 -19.514   9.559  1.00  0.00     0.185 C 
ENDROOT
BRANCH   1   2
ATOM      2  N   ARG     5       5.762 -18.755   8.681  1.00  0.00    -0.229 NA
ATOM      3  C   ASN     4       6.976 -19.135   8.314  1.00  0.00     0.275 C 
ATOM      4  O   ASN     4       7.607 -20.040   8.851  1.00  0.00    -0.268 OA
BRANCH   3   5
ATOM      5  CA  ASN     4       7.661 -18.118   7.377  1.00  0.00     0.196 C 
BRANCH   5   6
ATOM      6  N   ASN     4       8.997 -17.752   7.892  1.00  0.00    -0.228 NA
ATOM      7  C   LEU     3       9.307 -16.527   8.311  1.00  0.00     0.274 C 
ATOM      8  O   LEU     3       8.529 -15.569   8.330  1.00  0.00    -0.268 OA
BRANCH   7   9
ATOM      9  CA  LEU     3      10.726 -16.372   8.855  1.00  0.00     0.186 C 
BRANCH   9  10
ATOM     10  N   LEU     3      11.411 -15.269   8.145  1.00  0.00    -0.229 NA
ATOM     11  C   GLY     2      12.713 -15.295   7.849  1.00  0.00     0.277 C 
ATOM     12  O   GLY     2      13.414 -16.286   7.995  1.00  0.00    -0.268 OA
BRANCH  11  13
ATOM     13  CA  GLY     2      13.271 -14.043   7.139  1.00  0.00     0.218 C 
BRANCH  13  14
ATOM     14  N   GLY     2      13.363 -14.061   5.659  1.00  0.00    -0.226 NA
ATOM     15  C   GLU     1      14.514 -14.305   5.023  1.00  0.00     0.289 C 
ATOM     16  O   GLU     1      15.502 -14.686   5.629  1.00  0.00    -0.268 OA
BRANCH  15  17
ATOM     17  CA  GLU     1      14.553 -14.178   3.476  1.00  0.00     0.381 C 
ATOM     18  N   GLU     1      14.353 -15.458   2.773  1.00  0.00     0.626 N 
BRANCH  17  19
ATOM     19  CB  GLU     1      13.506 -13.131   3.043  1.00  0.00     0.060 C 
BRANCH  19  20
ATOM     20  CG  GLU     1      12.543 -13.460   1.892  1.00  0.00     0.100 C 
BRANCH  20  21
ATOM     21  CD  GLU     1      11.067 -13.375   2.309  1.00  0.00     0.185 C 
ATOM     22  OE1 GLU     1      10.799 -12.980   3.458  1.00  0.00    -0.647 OA
ATOM     23  OE2 GLU     1      10.199 -13.733   1.493  1.00  0.00    -0.647 OA
ENDBRANCH  20  21
ENDBRANCH  19  20
ENDBRANCH  17  19
ENDBRANCH  15  17
ENDBRANCH  13  14
ENDBRANCH  11  13
ENDBRANCH   9  10
BRANCH   9  24
ATOM     24  CB  LEU     3      10.649 -16.078  10.358  1.00  0.00     0.034 C 
BRANCH  24  25
ATOM     25  CG  LEU     3      11.539 -16.993  11.218  1.00  0.00     0.002 C 
ATOM     26  CD1 LEU     3      11.721 -18.335  10.511  1.00  0.00     0.000 C 
ATOM     27  CD2 LEU     3      12.905 -16.350  11.482  1.00  0.00     0.000 C 
ENDBRANCH  24  25
ENDBRANCH   9  24
ENDBRANCH   7   9
ENDBRANCH   5   6
BRANCH   5  28
ATOM     28  CB  ASN     4       7.774 -18.661   5.943  1.00  0.00     0.126 C 
BRANCH  28  29
ATOM     29  CG  ASN     4       6.578 -18.290   5.044  1.00  0.00     0.276 C 
ATOM     30  ND2 ASN     4       6.795 -18.300   3.756  1.00  0.00    -0.107 N 
ATOM     31  OD1 ASN     4       5.460 -18.059   5.464  1.00  0.00    -0.269 OA
ENDBRANCH  28  29
ENDBRANCH   5  28
ENDBRANCH   3   5
ENDBRANCH   1   2
BRANCH   1  32
ATOM     32  CB  ARG     5       4.970 -19.025  11.006  1.00  0.00     0.036 C 
BRANCH  32  33
ATOM     33  CG  ARG     5       5.832 -19.922  11.895  1.00  0.00     0.029 C 
BRANCH  33  34
ATOM     34  CD  ARG     5       5.030 -21.154  12.303  1.00  0.00     0.145 C 
BRANCH  34  35
ATOM     35  NE  ARG     5       4.751 -22.041  11.147  1.00  0.00    -0.083 NA
ATOM     36  CZ  ARG     5       4.055 -23.185  11.212  1.00  0.00     0.782 C 
ATOM     37  NH2 ARG     5       3.633 -23.805  10.098  1.00  0.00     0.063 N 
ATOM     38  NH1 ARG     5       3.648 -23.681  12.372  1.00  0.00     0.063 N 
ENDBRANCH  34  35
ENDBRANCH  33  34
ENDBRANCH  32  33
ENDBRANCH   1  32
BRANCH   1  39
ATOM     39  C   ARG     5       3.402 -19.341   9.072  1.00  0.00     0.256 C 
ATOM     40  O   ARG     5       2.742 -18.368   9.448  1.00  0.00    -0.270 OA
ATOM     41  N   PRO     6       2.952 -20.216   8.167  1.00  0.00    -0.312 N 
ATOM     42  CA  PRO     6       1.577 -20.214   7.620  1.00  0.00     0.165 C 
ATOM     43  CD  PRO     6       3.780 -21.212   7.452  1.00  0.00     0.105 C 
ATOM     44  CB  PRO     6       1.513 -21.445   6.715  1.00  0.00     0.034 C 
ATOM     45  CG  PRO     6       2.947 -21.581   6.224  1.00  0.00     0.027 C 
BRANCH  42  46
ATOM     46  C   PRO     6       0.527 -20.302   8.741  1.00  0.00     0.272 C 
ATOM     47  N   SER     7      -0.525 -19.496   8.712  1.00  0.00    -0.226 NA
ATOM     48  O   PRO     6       0.721 -21.040   9.712  1.00  0.00    -0.269 OA
BRANCH  47  49
ATOM     49  CA  SER     7      -0.826 -18.466   7.689  1.00  0.00     0.219 C 
BRANCH  49  50
ATOM     50  C   SER     7      -0.261 -17.088   8.076  1.00  0.00     0.277 C 
ATOM     51  O   SER     7       0.454 -16.487   7.281  1.00  0.00    -0.268 OA
ATOM     52  N   GLY     8      -0.782 -16.535   9.163  1.00  0.00    -0.226 NA
BRANCH  52  53
ATOM     53  CA  GLY     8      -0.201 -15.314   9.781  1.00  0.00     0.218 C 
BRANCH  53  54
ATOM     54  C   GLY     8      -0.842 -13.955   9.449  1.00  0.00     0.277 C 
ATOM     55  N   GLY     9      -2.092 -13.970   8.964  1.00  0.00    -0.226 NA
ATOM     56  O   GLY     8      -0.234 -12.920   9.669  1.00  0.00    -0.268 OA
BRANCH  55  57
ATOM     57  CA  GLY     9      -2.816 -12.746   8.565  1.00  0.00     0.218 C 
BRANCH  57  58
ATOM     58  C   GLY     9      -4.155 -12.607   9.328  1.00  0.00     0.277 C 
ATOM     59  O   GLY     9      -4.147 -12.572  10.552  1.00  0.00    -0.268 OA
ATOM     60  N   CYS    10      -5.324 -12.692   8.710  1.00  0.00    -0.228 NA
BRANCH  60  61
ATOM     61  CA  CYS    10      -5.579 -12.959   7.273  1.00  0.00     0.198 C 
BRANCH  61  62
ATOM     62  CB  CYS    10      -6.985 -13.517   7.022  1.00  0.00     0.103 C 
ATOM     63  SG  CYS    10      -7.657 -14.715   8.225  1.00  0.00    -0.080 SA
ENDBRANCH  61  62
BRANCH  61  64
ATOM     64  C   CYS    10      -5.497 -11.717   6.384  1.00  0.00     0.275 C 
ATOM     65  O   CYS    10      -5.536 -11.849   5.162  1.00  0.00    -0.268 OA
ATOM     66  N   GLY    11      -5.709 -10.581   7.029  1.00  0.00    -0.225 NA
BRANCH  66  67
ATOM     67  CA  GLY    11      -5.033  -9.336   6.638  1.00  0.00     0.226 C 
BRANCH  67  68
ATOM     68  C   GLY    11      -4.827  -8.571   7.954  1.00  0.00     0.211 C 
ATOM     69  O2  GLY    11      -5.538  -8.945   8.912  1.00  0.00    -0.646 OA
ATOM     70  O1  GLY    11      -3.753  -7.935   8.061  1.00  0.00    -0.646 OA
ENDBRANCH  67  68
ENDBRANCH  66  67
ENDBRANCH  61  64
ENDBRANCH  60  61
ENDBRANCH  57  58
ENDBRANCH  55  57
ENDBRANCH  53  54
ENDBRANCH  52  53
ENDBRANCH  49  50
BRANCH  49  71
ATOM     71  CB  SER     7      -2.333 -18.298   7.481  1.00  0.00     0.216 C 
ATOM     72  OG  SER     7      -3.029 -19.405   8.055  1.00  0.00    -0.218 OA
ENDBRANCH  49  71
ENDBRANCH  47  49
ENDBRANCH  42  46
ENDBRANCH   1  39
TORSDOF 33
ENDMDL
MODEL 5
REMARK VINA RESULT:      -5.6      3.797     11.920
REMARK WARNING: 32 MAX_TORS EXCEEDED!!!
REMARK  33 active torsions:
REMARK  status: ('A' for Active; 'I' for Inactive)
REMARK    1  A    between atoms: CA_2  and  C_8 
REMARK    2  A    between atoms: CA_2  and  CB_3 
REMARK    3  A    between atoms: CB_3  and  CG_4 
REMARK    4  A    between atoms: CG_4  and  CD_5 
REMARK       I    between atoms: C_8  and  N_10 
REMARK    5  A    between atoms: N_10  and  CA_11 
REMARK    6  A    between atoms: CA_11  and  C_12 
REMARK       I    between atoms: C_12  and  N_14 
REMARK    7  A    between atoms: N_14  and  CA_15 
REMARK    8  A    between atoms: CA_15  and  C_20 
REMARK    9  A    between atoms: CA_15  and  CB_16 
REMARK   10  A    between atoms: CB_16  and  CG_17 
REMARK       I    between atoms: C_20  and  N_22 
REMARK   11  A    between atoms: N_22  and  CA_23 
REMARK   12  A    between atoms: CA_23  and  CB_24 
REMARK   13  A    between atoms: CA_23  and  C_28 
REMARK   14  A    between atoms: CB_24  and  CG_25 
REMARK       I    between atoms: C_28  and  N_30 
REMARK   15  A    between atoms: N_30  and  CA_31 
REMARK   16  A    between atoms: CA_31  and  CB_32 
REMARK   17  A    between atoms: CA_31  and  C_39 
REMARK   18  A    between atoms: CB_32  and  CG_33 
REMARK   19  A    between atoms: CG_33  and  CD_34 
REMARK   20  A    between atoms: CD_34  and  NE_35 
REMARK       I    between atoms: C_39  and  N_41 
REMARK   21  A    between atoms: CA_42  and  C_46 
REMARK       I    between atoms: C_46  and  N_48 
REMARK   22  A    between atoms: N_48  and  CA_49 
REMARK   23  A    between atoms: CA_49  and  C_52 
REMARK   24  A    between atoms: CA_49  and  CB_50 
REMARK       I    between atoms: C_52  and  N_54 
REMARK   25  A    between atoms: N_54  and  CA_55 
REMARK   26  A    between atoms: CA_55  and  C_56 
REMARK       I    between atoms: C_56  and  N_58 
REMARK   27  A    between atoms: N_58  and  CA_59 
REMARK   28  A    between atoms: CA_59  and  C_60 
REMARK       I    between atoms: C_60  and  N_62 
REMARK   29  A    between atoms: N_62  and  CA_63 
REMARK   30  A    between atoms: CA_63  and  CB_64 
REMARK   31  A    between atoms: CA_63  and  C_66 
REMARK       I    between atoms: C_66  and  N_68 
REMARK   32  A    between atoms: N_68  and  CA_69 
REMARK   33  A    between atoms: CA_69  and  C_70 
ROOT
ATOM      1  CA  ARG     5      -1.127 -17.284   7.994  1.00  0.00     0.185 C 
ENDROOT
BRANCH   1   2
ATOM      2  N   ARG     5      -1.821 -18.285   7.164  1.00  0.00    -0.229 NA
ATOM      3  C   ASN     4      -2.651 -19.215   7.610  1.00  0.00     0.275 C 
ATOM      4  O   ASN     4      -2.761 -19.533   8.790  1.00  0.00    -0.268 OA
BRANCH   3   5
ATOM      5  CA  ASN     4      -3.220 -20.097   6.479  1.00  0.00     0.196 C 
BRANCH   5   6
ATOM      6  N   ASN     4      -2.133 -20.806   5.772  1.00  0.00    -0.228 NA
ATOM      7  C   LEU     3      -1.616 -21.956   6.196  1.00  0.00     0.274 C 
ATOM      8  O   LEU     3      -1.980 -22.566   7.206  1.00  0.00    -0.268 OA
BRANCH   7   9
ATOM      9  CA  LEU     3      -0.537 -22.551   5.291  1.00  0.00     0.186 C 
BRANCH   9  10
ATOM     10  N   LEU     3      -1.069 -22.700   3.918  1.00  0.00    -0.229 NA
ATOM     11  C   GLY     2      -0.918 -23.816   3.199  1.00  0.00     0.277 C 
ATOM     12  O   GLY     2      -0.470 -24.855   3.662  1.00  0.00    -0.268 OA
BRANCH  11  13
ATOM     13  CA  GLY     2      -1.503 -23.786   1.771  1.00  0.00     0.218 C 
BRANCH  13  14
ATOM     14  N   GLY     2      -2.932 -24.141   1.594  1.00  0.00    -0.226 NA
ATOM     15  C   GLU     1      -3.844 -23.241   1.210  1.00  0.00     0.289 C 
ATOM     16  O   GLU     1      -3.513 -22.131   0.828  1.00  0.00    -0.268 OA
BRANCH  15  17
ATOM     17  CA  GLU     1      -5.338 -23.662   1.173  1.00  0.00     0.381 C 
ATOM     18  N   GLU     1      -5.710 -24.619   2.230  1.00  0.00     0.626 N 
BRANCH  17  19
ATOM     19  CB  GLU     1      -6.208 -22.390   1.236  1.00  0.00     0.060 C 
BRANCH  19  20
ATOM     20  CG  GLU     1      -6.952 -22.051   2.537  1.00  0.00     0.100 C 
BRANCH  20  21
ATOM     21  CD  GLU     1      -8.473 -21.950   2.344  1.00  0.00     0.185 C 
ATOM     22  OE1 GLU     1      -9.040 -22.819   1.657  1.00  0.00    -0.647 OA
ATOM     23  OE2 GLU     1      -9.072 -20.988   2.854  1.00  0.00    -0.647 OA
ENDBRANCH  20  21
ENDBRANCH  19  20
ENDBRANCH  17  19
ENDBRANCH  15  17
ENDBRANCH  13  14
ENDBRANCH  11  13
ENDBRANCH   9  10
BRANCH   9  24
ATOM     24  CB  LEU     3       0.680 -21.618   5.297  1.00  0.00     0.034 C 
BRANCH  24  25
ATOM     25  CG  LEU     3       1.848 -22.125   6.161  1.00  0.00     0.002 C 
ATOM     26  CD1 LEU     3       1.645 -21.674   7.607  1.00  0.00     0.000 C 
ATOM     27  CD2 LEU     3       1.961 -23.653   6.099  1.00  0.00     0.000 C 
ENDBRANCH  24  25
ENDBRANCH   9  24
ENDBRANCH   7   9
ENDBRANCH   5   6
BRANCH   5  28
ATOM     28  CB  ASN     4      -4.251 -21.106   7.015  1.00  0.00     0.126 C 
BRANCH  28  29
ATOM     29  CG  ASN     4      -5.516 -21.221   6.143  1.00  0.00     0.276 C 
ATOM     30  ND2 ASN     4      -5.783 -20.203   5.370  1.00  0.00    -0.107 N 
ATOM     31  OD1 ASN     4      -6.218 -22.213   6.095  1.00  0.00    -0.269 OA
ENDBRANCH  28  29
ENDBRANCH   5  28
ENDBRANCH   3   5
ENDBRANCH   1   2
BRANCH   1  32
ATOM     32  CB  ARG     5       0.194 -16.866   7.339  1.00  0.00     0.036 C 
BRANCH  32  33
ATOM     33  CG  ARG     5       1.426 -17.134   8.205  1.00  0.00     0.029 C 
BRANCH  33  34
ATOM     34  CD  ARG     5       2.399 -18.025   7.441  1.00  0.00     0.145 C 
BRANCH  34  35
ATOM     35  NE  ARG     5       3.812 -17.666   7.713  1.00  0.00    -0.083 NA
ATOM     36  CZ  ARG     5       4.641 -17.097   6.826  1.00  0.00     0.782 C 
ATOM     37  NH2 ARG     5       5.819 -16.578   7.210  1.00  0.00     0.063 N 
ATOM     38  NH1 ARG     5       4.280 -16.912   5.564  1.00  0.00     0.063 N 
ENDBRANCH  34  35
ENDBRANCH  33  34
ENDBRANCH  32  33
ENDBRANCH   1  32
BRANCH   1  39
ATOM     39  C   ARG     5      -2.028 -16.047   8.171  1.00  0.00     0.256 C 
ATOM     40  O   ARG     5      -2.533 -15.510   7.181  1.00  0.00    -0.270 OA
ATOM     41  N   PRO     6      -2.306 -15.669   9.422  1.00  0.00    -0.312 N 
ATOM     42  CA  PRO     6      -3.126 -14.486   9.770  1.00  0.00     0.165 C 
ATOM     43  CD  PRO     6      -1.988 -16.441  10.643  1.00  0.00     0.105 C 
ATOM     44  CB  PRO     6      -3.075 -14.409  11.297  1.00  0.00     0.034 C 
ATOM     45  CG  PRO     6      -2.925 -15.867  11.707  1.00  0.00     0.027 C 
BRANCH  42  46
ATOM     46  C   PRO     6      -2.559 -13.205   9.137  1.00  0.00     0.272 C 
ATOM     47  N   SER     7      -3.377 -12.374   8.505  1.00  0.00    -0.226 NA
ATOM     48  O   PRO     6      -1.340 -13.008   9.126  1.00  0.00    -0.269 OA
BRANCH  47  49
ATOM     49  CA  SER     7      -4.838 -12.540   8.315  1.00  0.00     0.219 C 
BRANCH  49  50
ATOM     50  C   SER     7      -5.289 -12.110   6.908  1.00  0.00     0.277 C 
ATOM     51  O   SER     7      -5.079 -10.960   6.536  1.00  0.00    -0.268 OA
ATOM     52  N   GLY     8      -5.668 -13.089   6.099  1.00  0.00    -0.226 NA
BRANCH  52  53
ATOM     53  CA  GLY     8      -6.325 -12.822   4.792  1.00  0.00     0.218 C 
BRANCH  53  54
ATOM     54  C   GLY     8      -7.828 -13.126   4.659  1.00  0.00     0.277 C 
ATOM     55  N   GLY     9      -8.198 -13.966   3.681  1.00  0.00    -0.226 NA
ATOM     56  O   GLY     8      -8.623 -12.644   5.449  1.00  0.00    -0.268 OA
BRANCH  55  57
ATOM     57  CA  GLY     9      -9.607 -14.317   3.411  1.00  0.00     0.218 C 
BRANCH  57  58
ATOM     58  C   GLY     9      -9.756 -15.811   3.035  1.00  0.00     0.277 C 
ATOM     59  O   GLY     9      -9.890 -16.122   1.859  1.00  0.00    -0.268 OA
ATOM     60  N   CYS    10      -9.910 -16.751   3.956  1.00  0.00    -0.228 NA
BRANCH  60  61
ATOM     61  CA  CYS    10     -10.006 -16.581   5.426  1.00  0.00     0.198 C 
BRANCH  61  62
ATOM     62  CB  CYS    10     -10.977 -17.578   6.068  1.00  0.00     0.103 C 
ATOM     63  SG  CYS    10     -10.566 -19.354   5.974  1.00  0.00    -0.080 SA
ENDBRANCH  61  62
BRANCH  61  64
ATOM     64  C   CYS    10      -8.686 -16.803   6.168  1.00  0.00     0.275 C 
ATOM     65  O   CYS    10      -7.718 -17.249   5.554  1.00  0.00    -0.268 OA
ATOM     66  N   GLY    11      -8.623 -16.194   7.341  1.00  0.00    -0.225 NA
BRANCH  66  67
ATOM     67  CA  GLY    11      -7.876 -16.772   8.468  1.00  0.00     0.226 C 
BRANCH  67  68
ATOM     68  C   GLY    11      -6.678 -15.830   8.669  1.00  0.00     0.211 C 
ATOM     69  O2  GLY    11      -6.624 -15.255   9.777  1.00  0.00    -0.646 OA
ATOM     70  O1  GLY    11      -5.704 -16.003   7.901  1.00  0.00    -0.646 OA
ENDBRANCH  67  68
ENDBRANCH  66  67
ENDBRANCH  61  64
ENDBRANCH  60  61
ENDBRANCH  57  58
ENDBRANCH  55  57
ENDBRANCH  53  54
ENDBRANCH  52  53
ENDBRANCH  49  50
BRANCH  49  71
ATOM     71  CB  SER     7      -5.637 -11.711   9.323  1.00  0.00     0.216 C 
ATOM     72  OG  SER     7      -7.034 -11.956   9.156  1.00  0.00    -0.218 OA
ENDBRANCH  49  71
ENDBRANCH  47  49
ENDBRANCH  42  46
ENDBRANCH   1  39
TORSDOF 33
ENDMDL
MODEL 6
REMARK VINA RESULT:      -5.5      3.459     12.152
REMARK WARNING: 32 MAX_TORS EXCEEDED!!!
REMARK  33 active torsions:
REMARK  status: ('A' for Active; 'I' for Inactive)
REMARK    1  A    between atoms: CA_2  and  C_8 
REMARK    2  A    between atoms: CA_2  and  CB_3 
REMARK    3  A    between atoms: CB_3  and  CG_4 
REMARK    4  A    between atoms: CG_4  and  CD_5 
REMARK       I    between atoms: C_8  and  N_10 
REMARK    5  A    between atoms: N_10  and  CA_11 
REMARK    6  A    between atoms: CA_11  and  C_12 
REMARK       I    between atoms: C_12  and  N_14 
REMARK    7  A    between atoms: N_14  and  CA_15 
REMARK    8  A    between atoms: CA_15  and  C_20 
REMARK    9  A    between atoms: CA_15  and  CB_16 
REMARK   10  A    between atoms: CB_16  and  CG_17 
REMARK       I    between atoms: C_20  and  N_22 
REMARK   11  A    between atoms: N_22  and  CA_23 
REMARK   12  A    between atoms: CA_23  and  CB_24 
REMARK   13  A    between atoms: CA_23  and  C_28 
REMARK   14  A    between atoms: CB_24  and  CG_25 
REMARK       I    between atoms: C_28  and  N_30 
REMARK   15  A    between atoms: N_30  and  CA_31 
REMARK   16  A    between atoms: CA_31  and  CB_32 
REMARK   17  A    between atoms: CA_31  and  C_39 
REMARK   18  A    between atoms: CB_32  and  CG_33 
REMARK   19  A    between atoms: CG_33  and  CD_34 
REMARK   20  A    between atoms: CD_34  and  NE_35 
REMARK       I    between atoms: C_39  and  N_41 
REMARK   21  A    between atoms: CA_42  and  C_46 
REMARK       I    between atoms: C_46  and  N_48 
REMARK   22  A    between atoms: N_48  and  CA_49 
REMARK   23  A    between atoms: CA_49  and  C_52 
REMARK   24  A    between atoms: CA_49  and  CB_50 
REMARK       I    between atoms: C_52  and  N_54 
REMARK   25  A    between atoms: N_54  and  CA_55 
REMARK   26  A    between atoms: CA_55  and  C_56 
REMARK       I    between atoms: C_56  and  N_58 
REMARK   27  A    between atoms: N_58  and  CA_59 
REMARK   28  A    between atoms: CA_59  and  C_60 
REMARK       I    between atoms: C_60  and  N_62 
REMARK   29  A    between atoms: N_62  and  CA_63 
REMARK   30  A    between atoms: CA_63  and  CB_64 
REMARK   31  A    between atoms: CA_63  and  C_66 
REMARK       I    between atoms: C_66  and  N_68 
REMARK   32  A    between atoms: N_68  and  CA_69 
REMARK   33  A    between atoms: CA_69  and  C_70 
ROOT
ATOM      1  CA  ARG     5      -1.724 -18.727   7.688  1.00  0.00     0.185 C 
ENDROOT
BRANCH   1   2
ATOM      2  N   ARG     5      -2.807 -19.227   6.821  1.00  0.00    -0.229 NA
ATOM      3  C   ASN     4      -3.229 -20.481   6.758  1.00  0.00     0.275 C 
ATOM      4  O   ASN     4      -2.616 -21.438   7.219  1.00  0.00    -0.268 OA
BRANCH   3   5
ATOM      5  CA  ASN     4      -4.389 -20.669   5.759  1.00  0.00     0.196 C 
BRANCH   5   6
ATOM      6  N   ASN     4      -4.140 -21.834   4.883  1.00  0.00    -0.228 NA
ATOM      7  C   LEU     3      -3.565 -21.736   3.688  1.00  0.00     0.274 C 
ATOM      8  O   LEU     3      -3.168 -20.684   3.177  1.00  0.00    -0.268 OA
BRANCH   7   9
ATOM      9  CA  LEU     3      -3.350 -23.066   2.966  1.00  0.00     0.186 C 
BRANCH   9  10
ATOM     10  N   LEU     3      -2.203 -23.779   3.571  1.00  0.00    -0.229 NA
ATOM     11  C   GLY     2      -1.103 -24.098   2.884  1.00  0.00     0.277 C 
ATOM     12  O   GLY     2      -0.881 -23.697   1.751  1.00  0.00    -0.268 OA
BRANCH  11  13
ATOM     13  CA  GLY     2      -0.020 -24.875   3.663  1.00  0.00     0.218 C 
BRANCH  13  14
ATOM     14  N   GLY     2       0.883 -24.110   4.555  1.00  0.00    -0.226 NA
ATOM     15  C   GLU     1       0.678 -24.034   5.876  1.00  0.00     0.289 C 
ATOM     16  O   GLU     1      -0.163 -24.727   6.424  1.00  0.00    -0.268 OA
BRANCH  15  17
ATOM     17  CA  GLU     1       1.594 -23.108   6.720  1.00  0.00     0.381 C 
ATOM     18  N   GLU     1       2.057 -23.721   7.978  1.00  0.00     0.626 N 
BRANCH  17  19
ATOM     19  CB  GLU     1       2.782 -22.661   5.845  1.00  0.00     0.060 C 
BRANCH  19  20
ATOM     20  CG  GLU     1       4.148 -23.341   6.023  1.00  0.00     0.100 C 
BRANCH  20  21
ATOM     21  CD  GLU     1       5.194 -22.418   6.666  1.00  0.00     0.185 C 
ATOM     22  OE1 GLU     1       6.210 -22.934   7.166  1.00  0.00    -0.647 OA
ATOM     23  OE2 GLU     1       4.970 -21.195   6.688  1.00  0.00    -0.647 OA
ENDBRANCH  20  21
ENDBRANCH  19  20
ENDBRANCH  17  19
ENDBRANCH  15  17
ENDBRANCH  13  14
ENDBRANCH  11  13
ENDBRANCH   9  10
BRANCH   9  24
ATOM     24  CB  LEU     3      -4.629 -23.904   3.086  1.00  0.00     0.034 C 
BRANCH  24  25
ATOM     25  CG  LEU     3      -5.304 -24.206   1.736  1.00  0.00     0.002 C 
ATOM     26  CD1 LEU     3      -5.475 -22.907   0.952  1.00  0.00     0.000 C 
ATOM     27  CD2 LEU     3      -4.484 -25.209   0.918  1.00  0.00     0.000 C 
ENDBRANCH  24  25
ENDBRANCH   9  24
ENDBRANCH   7   9
ENDBRANCH   5   6
BRANCH   5  28
ATOM     28  CB  ASN     4      -5.737 -20.828   6.484  1.00  0.00     0.126 C 
BRANCH  28  29
ATOM     29  CG  ASN     4      -6.953 -20.433   5.624  1.00  0.00     0.276 C 
ATOM     30  ND2 ASN     4      -7.416 -21.351   4.818  1.00  0.00    -0.107 N 
ATOM     31  OD1 ASN     4      -7.523 -19.362   5.707  1.00  0.00    -0.269 OA
ENDBRANCH  28  29
ENDBRANCH   5  28
ENDBRANCH   3   5
ENDBRANCH   1   2
BRANCH   1  32
ATOM     32  CB  ARG     5      -0.479 -18.398   6.856  1.00  0.00     0.036 C 
BRANCH  32  33
ATOM     33  CG  ARG     5       0.521 -19.551   6.756  1.00  0.00     0.029 C 
BRANCH  33  34
ATOM     34  CD  ARG     5       1.780 -19.200   7.541  1.00  0.00     0.145 C 
BRANCH  34  35
ATOM     35  NE  ARG     5       2.442 -17.982   7.013  1.00  0.00    -0.083 NA
ATOM     36  CZ  ARG     5       3.677 -17.578   7.344  1.00  0.00     0.782 C 
ATOM     37  NH2 ARG     5       4.301 -16.613   6.649  1.00  0.00     0.063 N 
ATOM     38  NH1 ARG     5       4.376 -18.196   8.286  1.00  0.00     0.063 N 
ENDBRANCH  34  35
ENDBRANCH  33  34
ENDBRANCH  32  33
ENDBRANCH   1  32
BRANCH   1  39
ATOM     39  C   ARG     5      -2.199 -17.463   8.428  1.00  0.00     0.256 C 
ATOM     40  O   ARG     5      -2.240 -16.382   7.831  1.00  0.00    -0.270 OA
ATOM     41  N   PRO     6      -2.649 -17.619   9.677  1.00  0.00    -0.312 N 
ATOM     42  CA  PRO     6      -3.109 -16.507  10.539  1.00  0.00     0.165 C 
ATOM     43  CD  PRO     6      -2.911 -18.915  10.338  1.00  0.00     0.105 C 
ATOM     44  CB  PRO     6      -3.423 -17.161  11.886  1.00  0.00     0.034 C 
ATOM     45  CG  PRO     6      -3.854 -18.566  11.491  1.00  0.00     0.027 C 
BRANCH  42  46
ATOM     46  C   PRO     6      -2.023 -15.429  10.693  1.00  0.00     0.272 C 
ATOM     47  N   SER     7      -2.342 -14.154  10.516  1.00  0.00    -0.226 NA
ATOM     48  O   PRO     6      -0.847 -15.758  10.872  1.00  0.00    -0.269 OA
BRANCH  47  49
ATOM     49  CA  SER     7      -3.677 -13.614  10.164  1.00  0.00     0.219 C 
BRANCH  49  50
ATOM     50  C   SER     7      -3.575 -12.338   9.311  1.00  0.00     0.277 C 
ATOM     51  O   SER     7      -2.682 -12.244   8.475  1.00  0.00    -0.268 OA
ATOM     52  N   GLY     8      -4.612 -11.514   9.377  1.00  0.00    -0.226 NA
BRANCH  52  53
ATOM     53  CA  GLY     8      -4.575 -10.152   8.782  1.00  0.00     0.218 C 
BRANCH  53  54
ATOM     54  C   GLY     8      -4.848 -10.010   7.274  1.00  0.00     0.277 C 
ATOM     55  N   GLY     9      -5.596 -10.960   6.695  1.00  0.00    -0.226 NA
ATOM     56  O   GLY     8      -4.425  -9.042   6.663  1.00  0.00    -0.268 OA
BRANCH  55  57
ATOM     57  CA  GLY     9      -5.905 -10.974   5.250  1.00  0.00     0.218 C 
BRANCH  57  58
ATOM     58  C   GLY     9      -7.429 -11.060   4.998  1.00  0.00     0.277 C 
ATOM     59  O   GLY     9      -8.120 -10.061   5.151  1.00  0.00    -0.268 OA
ATOM     60  N   CYS    10      -8.038 -12.218   4.784  1.00  0.00    -0.228 NA
BRANCH  60  61
ATOM     61  CA  CYS    10      -7.440 -13.576   4.780  1.00  0.00     0.198 C 
BRANCH  61  62
ATOM     62  CB  CYS    10      -7.736 -14.348   6.071  1.00  0.00     0.103 C 
ATOM     63  SG  CYS    10      -9.001 -13.673   7.201  1.00  0.00    -0.080 SA
ENDBRANCH  61  62
BRANCH  61  64
ATOM     64  C   CYS    10      -7.959 -14.484   3.664  1.00  0.00     0.275 C 
ATOM     65  O   CYS    10      -7.198 -15.303   3.153  1.00  0.00    -0.268 OA
ATOM     66  N   GLY    11      -9.279 -14.515   3.570  1.00  0.00    -0.225 NA
BRANCH  66  67
ATOM     67  CA  GLY    11      -9.953 -14.685   2.276  1.00  0.00     0.226 C 
BRANCH  67  68
ATOM     68  C   GLY    11     -10.360 -16.167   2.236  1.00  0.00     0.211 C 
ATOM     69  O2  GLY    11     -10.249 -16.785   3.317  1.00  0.00    -0.646 OA
ATOM     70  O1  GLY    11     -11.092 -16.514   1.281  1.00  0.00    -0.646 OA
ENDBRANCH  67  68
ENDBRANCH  66  67
ENDBRANCH  61  64
ENDBRANCH  60  61
ENDBRANCH  57  58
ENDBRANCH  55  57
ENDBRANCH  53  54
ENDBRANCH  52  53
ENDBRANCH  49  50
BRANCH  49  71
ATOM     71  CB  SER     7      -4.493 -13.265  11.411  1.00  0.00     0.216 C 
ATOM     72  OG  SER     7      -5.605 -14.152  11.528  1.00  0.00    -0.218 OA
ENDBRANCH  49  71
ENDBRANCH  47  49
ENDBRANCH  42  46
ENDBRANCH   1  39
TORSDOF 33
ENDMDL
MODEL 7
REMARK VINA RESULT:      -5.5      4.142     11.952
REMARK WARNING: 32 MAX_TORS EXCEEDED!!!
REMARK  33 active torsions:
REMARK  status: ('A' for Active; 'I' for Inactive)
REMARK    1  A    between atoms: CA_2  and  C_8 
REMARK    2  A    between atoms: CA_2  and  CB_3 
REMARK    3  A    between atoms: CB_3  and  CG_4 
REMARK    4  A    between atoms: CG_4  and  CD_5 
REMARK       I    between atoms: C_8  and  N_10 
REMARK    5  A    between atoms: N_10  and  CA_11 
REMARK    6  A    between atoms: CA_11  and  C_12 
REMARK       I    between atoms: C_12  and  N_14 
REMARK    7  A    between atoms: N_14  and  CA_15 
REMARK    8  A    between atoms: CA_15  and  C_20 
REMARK    9  A    between atoms: CA_15  and  CB_16 
REMARK   10  A    between atoms: CB_16  and  CG_17 
REMARK       I    between atoms: C_20  and  N_22 
REMARK   11  A    between atoms: N_22  and  CA_23 
REMARK   12  A    between atoms: CA_23  and  CB_24 
REMARK   13  A    between atoms: CA_23  and  C_28 
REMARK   14  A    between atoms: CB_24  and  CG_25 
REMARK       I    between atoms: C_28  and  N_30 
REMARK   15  A    between atoms: N_30  and  CA_31 
REMARK   16  A    between atoms: CA_31  and  CB_32 
REMARK   17  A    between atoms: CA_31  and  C_39 
REMARK   18  A    between atoms: CB_32  and  CG_33 
REMARK   19  A    between atoms: CG_33  and  CD_34 
REMARK   20  A    between atoms: CD_34  and  NE_35 
REMARK       I    between atoms: C_39  and  N_41 
REMARK   21  A    between atoms: CA_42  and  C_46 
REMARK       I    between atoms: C_46  and  N_48 
REMARK   22  A    between atoms: N_48  and  CA_49 
REMARK   23  A    between atoms: CA_49  and  C_52 
REMARK   24  A    between atoms: CA_49  and  CB_50 
REMARK       I    between atoms: C_52  and  N_54 
REMARK   25  A    between atoms: N_54  and  CA_55 
REMARK   26  A    between atoms: CA_55  and  C_56 
REMARK       I    between atoms: C_56  and  N_58 
REMARK   27  A    between atoms: N_58  and  CA_59 
REMARK   28  A    between atoms: CA_59  and  C_60 
REMARK       I    between atoms: C_60  and  N_62 
REMARK   29  A    between atoms: N_62  and  CA_63 
REMARK   30  A    between atoms: CA_63  and  CB_64 
REMARK   31  A    between atoms: CA_63  and  C_66 
REMARK       I    between atoms: C_66  and  N_68 
REMARK   32  A    between atoms: N_68  and  CA_69 
REMARK   33  A    between atoms: CA_69  and  C_70 
ROOT
ATOM      1  CA  ARG     5      -1.885 -17.775   7.951  1.00  0.00     0.185 C 
ENDROOT
BRANCH   1   2
ATOM      2  N   ARG     5      -2.837 -18.579   7.162  1.00  0.00    -0.229 NA
ATOM      3  C   ASN     4      -2.997 -19.891   7.250  1.00  0.00     0.275 C 
ATOM      4  O   ASN     4      -2.208 -20.646   7.810  1.00  0.00    -0.268 OA
BRANCH   3   5
ATOM      5  CA  ASN     4      -4.086 -20.423   6.296  1.00  0.00     0.196 C 
BRANCH   5   6
ATOM      6  N   ASN     4      -3.656 -21.690   5.668  1.00  0.00    -0.228 NA
ATOM      7  C   LEU     3      -3.425 -21.816   4.364  1.00  0.00     0.274 C 
ATOM      8  O   LEU     3      -3.531 -20.907   3.535  1.00  0.00    -0.268 OA
BRANCH   7   9
ATOM      9  CA  LEU     3      -2.937 -23.197   3.926  1.00  0.00     0.186 C 
BRANCH   9  10
ATOM     10  N   LEU     3      -4.086 -24.126   3.844  1.00  0.00    -0.229 NA
ATOM     11  C   GLY     2      -4.048 -25.370   4.330  1.00  0.00     0.277 C 
ATOM     12  O   GLY     2      -3.129 -25.795   5.014  1.00  0.00    -0.268 OA
BRANCH  11  13
ATOM     13  CA  GLY     2      -5.323 -26.215   4.125  1.00  0.00     0.218 C 
BRANCH  13  14
ATOM     14  N   GLY     2      -6.310 -25.758   3.117  1.00  0.00    -0.226 NA
ATOM     15  C   GLU     1      -6.216 -26.098   1.827  1.00  0.00     0.289 C 
ATOM     16  O   GLU     1      -5.410 -26.934   1.452  1.00  0.00    -0.268 OA
BRANCH  15  17
ATOM     17  CA  GLU     1      -7.214 -25.474   0.816  1.00  0.00     0.381 C 
ATOM     18  N   GLU     1      -8.595 -25.965   0.967  1.00  0.00     0.626 N 
BRANCH  17  19
ATOM     19  CB  GLU     1      -7.148 -23.938   0.945  1.00  0.00     0.060 C 
BRANCH  19  20
ATOM     20  CG  GLU     1      -8.288 -23.192   1.656  1.00  0.00     0.100 C 
BRANCH  20  21
ATOM     21  CD  GLU     1      -7.784 -22.058   2.561  1.00  0.00     0.185 C 
ATOM     22  OE1 GLU     1      -6.575 -22.029   2.855  1.00  0.00    -0.647 OA
ATOM     23  OE2 GLU     1      -8.608 -21.232   2.990  1.00  0.00    -0.647 OA
ENDBRANCH  20  21
ENDBRANCH  19  20
ENDBRANCH  17  19
ENDBRANCH  15  17
ENDBRANCH  13  14
ENDBRANCH  11  13
ENDBRANCH   9  10
BRANCH   9  24
ATOM     24  CB  LEU     3      -2.252 -23.068   2.560  1.00  0.00     0.034 C 
BRANCH  24  25
ATOM     25  CG  LEU     3      -0.954 -23.884   2.435  1.00  0.00     0.002 C 
ATOM     26  CD1 LEU     3      -0.298 -24.011   3.809  1.00  0.00     0.000 C 
ATOM     27  CD2 LEU     3      -1.227 -25.276   1.854  1.00  0.00     0.000 C 
ENDBRANCH  24  25
ENDBRANCH   9  24
ENDBRANCH   7   9
ENDBRANCH   5   6
BRANCH   5  28
ATOM     28  CB  ASN     4      -5.427 -20.618   7.023  1.00  0.00     0.126 C 
BRANCH  28  29
ATOM     29  CG  ASN     4      -6.656 -20.460   6.108  1.00  0.00     0.276 C 
ATOM     30  ND2 ASN     4      -7.617 -21.330   6.272  1.00  0.00    -0.107 N 
ATOM     31  OD1 ASN     4      -6.797 -19.552   5.311  1.00  0.00    -0.269 OA
ENDBRANCH  28  29
ENDBRANCH   5  28
ENDBRANCH   3   5
ENDBRANCH   1   2
BRANCH   1  32
ATOM     32  CB  ARG     5      -0.531 -17.692   7.237  1.00  0.00     0.036 C 
BRANCH  32  33
ATOM     33  CG  ARG     5       0.664 -17.588   8.186  1.00  0.00     0.029 C 
BRANCH  33  34
ATOM     34  CD  ARG     5       1.728 -18.600   7.774  1.00  0.00     0.145 C 
BRANCH  34  35
ATOM     35  NE  ARG     5       1.130 -19.844   7.233  1.00  0.00    -0.083 NA
ATOM     36  CZ  ARG     5       1.830 -20.895   6.779  1.00  0.00     0.782 C 
ATOM     37  NH2 ARG     5       1.233 -22.073   6.536  1.00  0.00     0.063 N 
ATOM     38  NH1 ARG     5       3.150 -20.851   6.673  1.00  0.00     0.063 N 
ENDBRANCH  34  35
ENDBRANCH  33  34
ENDBRANCH  32  33
ENDBRANCH   1  32
BRANCH   1  39
ATOM     39  C   ARG     5      -2.451 -16.357   8.150  1.00  0.00     0.256 C 
ATOM     40  O   ARG     5      -2.877 -15.725   7.179  1.00  0.00    -0.270 OA
ATOM     41  N   PRO     6      -2.548 -15.909   9.405  1.00  0.00    -0.312 N 
ATOM     42  CA  PRO     6      -3.037 -14.560   9.772  1.00  0.00     0.165 C 
ATOM     43  CD  PRO     6      -2.344 -16.722  10.625  1.00  0.00     0.105 C 
ATOM     44  CB  PRO     6      -2.869 -14.482  11.290  1.00  0.00     0.034 C 
ATOM     45  CG  PRO     6      -3.046 -15.928  11.728  1.00  0.00     0.027 C 
BRANCH  42  46
ATOM     46  C   PRO     6      -2.223 -13.459   9.072  1.00  0.00     0.272 C 
ATOM     47  N   SER     7      -2.851 -12.409   8.561  1.00  0.00    -0.226 NA
ATOM     48  O   PRO     6      -1.010 -13.606   8.895  1.00  0.00    -0.269 OA
BRANCH  47  49
ATOM     49  CA  SER     7      -4.313 -12.157   8.574  1.00  0.00     0.219 C 
BRANCH  49  50
ATOM     50  C   SER     7      -4.931 -12.282   7.170  1.00  0.00     0.277 C 
ATOM     51  O   SER     7      -4.766 -13.316   6.532  1.00  0.00    -0.268 OA
ATOM     52  N   GLY     8      -5.805 -11.342   6.839  1.00  0.00    -0.226 NA
BRANCH  52  53
ATOM     53  CA  GLY     8      -6.326 -11.204   5.454  1.00  0.00     0.218 C 
BRANCH  53  54
ATOM     54  C   GLY     8      -7.698 -11.823   5.128  1.00  0.00     0.277 C 
ATOM     55  N   GLY     9      -7.705 -13.065   4.622  1.00  0.00    -0.226 NA
ATOM     56  O   GLY     8      -8.722 -11.206   5.371  1.00  0.00    -0.268 OA
BRANCH  55  57
ATOM     57  CA  GLY     9      -8.943 -13.767   4.227  1.00  0.00     0.218 C 
BRANCH  57  58
ATOM     58  C   GLY     9      -8.668 -15.252   3.890  1.00  0.00     0.277 C 
ATOM     59  O   GLY     9      -8.638 -15.606   2.718  1.00  0.00    -0.268 OA
ATOM     60  N   CYS    10      -8.628 -16.186   4.830  1.00  0.00    -0.228 NA
BRANCH  60  61
ATOM     61  CA  CYS    10      -8.861 -16.025   6.286  1.00  0.00     0.198 C 
BRANCH  61  62
ATOM     62  CB  CYS    10      -9.573 -17.236   6.901  1.00  0.00     0.103 C 
ATOM     63  SG  CYS    10     -10.253 -17.062   8.586  1.00  0.00    -0.080 SA
ENDBRANCH  61  62
BRANCH  61  64
ATOM     64  C   CYS    10      -7.580 -15.877   7.110  1.00  0.00     0.275 C 
ATOM     65  O   CYS    10      -6.585 -16.528   6.797  1.00  0.00    -0.268 OA
ATOM     66  N   GLY    11      -7.574 -14.817   7.902  1.00  0.00    -0.225 NA
BRANCH  66  67
ATOM     67  CA  GLY    11      -6.886 -14.831   9.201  1.00  0.00     0.226 C 
BRANCH  67  68
ATOM     68  C   GLY    11      -7.936 -14.333  10.206  1.00  0.00     0.211 C 
ATOM     69  O2  GLY    11      -7.525 -14.165  11.375  1.00  0.00    -0.646 OA
ATOM     70  O1  GLY    11      -8.958 -13.798   9.720  1.00  0.00    -0.646 OA
ENDBRANCH  67  68
ENDBRANCH  66  67
ENDBRANCH  61  64
ENDBRANCH  60  61
ENDBRANCH  57  58
ENDBRANCH  55  57
ENDBRANCH  53  54
ENDBRANCH  52  53
ENDBRANCH  49  50
BRANCH  49  71
ATOM     71  CB  SER     7      -4.640 -10.756   9.094  1.00  0.00     0.216 C 
ATOM     72  OG  SER     7      -3.463  -9.948   9.090  1.00  0.00    -0.218 OA
ENDBRANCH  49  71
ENDBRANCH  47  49
ENDBRANCH  42  46
ENDBRANCH   1  39
TORSDOF 33
ENDMDL
MODEL 8
REMARK VINA RESULT:      -5.5     16.030     22.066
REMARK WARNING: 32 MAX_TORS EXCEEDED!!!
REMARK  33 active torsions:
REMARK  status: ('A' for Active; 'I' for Inactive)
REMARK    1  A    between atoms: CA_2  and  C_8 
REMARK    2  A    between atoms: CA_2  and  CB_3 
REMARK    3  A    between atoms: CB_3  and  CG_4 
REMARK    4  A    between atoms: CG_4  and  CD_5 
REMARK       I    between atoms: C_8  and  N_10 
REMARK    5  A    between atoms: N_10  and  CA_11 
REMARK    6  A    between atoms: CA_11  and  C_12 
REMARK       I    between atoms: C_12  and  N_14 
REMARK    7  A    between atoms: N_14  and  CA_15 
REMARK    8  A    between atoms: CA_15  and  C_20 
REMARK    9  A    between atoms: CA_15  and  CB_16 
REMARK   10  A    between atoms: CB_16  and  CG_17 
REMARK       I    between atoms: C_20  and  N_22 
REMARK   11  A    between atoms: N_22  and  CA_23 
REMARK   12  A    between atoms: CA_23  and  CB_24 
REMARK   13  A    between atoms: CA_23  and  C_28 
REMARK   14  A    between atoms: CB_24  and  CG_25 
REMARK       I    between atoms: C_28  and  N_30 
REMARK   15  A    between atoms: N_30  and  CA_31 
REMARK   16  A    between atoms: CA_31  and  CB_32 
REMARK   17  A    between atoms: CA_31  and  C_39 
REMARK   18  A    between atoms: CB_32  and  CG_33 
REMARK   19  A    between atoms: CG_33  and  CD_34 
REMARK   20  A    between atoms: CD_34  and  NE_35 
REMARK       I    between atoms: C_39  and  N_41 
REMARK   21  A    between atoms: CA_42  and  C_46 
REMARK       I    between atoms: C_46  and  N_48 
REMARK   22  A    between atoms: N_48  and  CA_49 
REMARK   23  A    between atoms: CA_49  and  C_52 
REMARK   24  A    between atoms: CA_49  and  CB_50 
REMARK       I    between atoms: C_52  and  N_54 
REMARK   25  A    between atoms: N_54  and  CA_55 
REMARK   26  A    between atoms: CA_55  and  C_56 
REMARK       I    between atoms: C_56  and  N_58 
REMARK   27  A    between atoms: N_58  and  CA_59 
REMARK   28  A    between atoms: CA_59  and  C_60 
REMARK       I    between atoms: C_60  and  N_62 
REMARK   29  A    between atoms: N_62  and  CA_63 
REMARK   30  A    between atoms: CA_63  and  CB_64 
REMARK   31  A    between atoms: CA_63  and  C_66 
REMARK       I    between atoms: C_66  and  N_68 
REMARK   32  A    between atoms: N_68  and  CA_69 
REMARK   33  A    between atoms: CA_69  and  C_70 
ROOT
ATOM      1  CA  ARG     5       6.193  -4.683  11.056  1.00  0.00     0.185 C 
ENDROOT
BRANCH   1   2
ATOM      2  N   ARG     5       7.225  -3.653  10.831  1.00  0.00    -0.229 NA
ATOM      3  C   ASN     4       7.610  -3.192   9.652  1.00  0.00     0.275 C 
ATOM      4  O   ASN     4       7.348  -3.731   8.581  1.00  0.00    -0.268 OA
BRANCH   3   5
ATOM      5  CA  ASN     4       8.701  -2.107   9.764  1.00  0.00     0.196 C 
BRANCH   5   6
ATOM      6  N   ASN     4       9.005  -1.532   8.437  1.00  0.00    -0.228 NA
ATOM      7  C   LEU     3      10.217  -1.110   8.085  1.00  0.00     0.274 C 
ATOM      8  O   LEU     3      11.218  -1.154   8.807  1.00  0.00    -0.268 OA
BRANCH   7   9
ATOM      9  CA  LEU     3      10.330  -0.600   6.649  1.00  0.00     0.186 C 
BRANCH   9  10
ATOM     10  N   LEU     3       9.345   0.482   6.429  1.00  0.00    -0.229 NA
ATOM     11  C   GLY     2       8.234   0.315   5.705  1.00  0.00     0.277 C 
ATOM     12  O   GLY     2       7.858  -0.774   5.297  1.00  0.00    -0.268 OA
BRANCH  11  13
ATOM     13  CA  GLY     2       7.336   1.560   5.547  1.00  0.00     0.218 C 
BRANCH  13  14
ATOM     14  N   GLY     2       6.306   1.815   6.582  1.00  0.00    -0.226 NA
ATOM     15  C   GLU     1       6.047   3.046   7.037  1.00  0.00     0.289 C 
ATOM     16  O   GLU     1       6.529   4.031   6.502  1.00  0.00    -0.268 OA
BRANCH  15  17
ATOM     17  CA  GLU     1       5.046   3.212   8.212  1.00  0.00     0.381 C 
ATOM     18  N   GLU     1       5.690   3.536   9.497  1.00  0.00     0.626 N 
BRANCH  17  19
ATOM     19  CB  GLU     1       4.005   4.282   7.822  1.00  0.00     0.060 C 
BRANCH  19  20
ATOM     20  CG  GLU     1       4.095   5.683   8.445  1.00  0.00     0.100 C 
BRANCH  20  21
ATOM     21  CD  GLU     1       2.771   6.458   8.360  1.00  0.00     0.185 C 
ATOM     22  OE1 GLU     1       2.262   6.637   7.239  1.00  0.00    -0.647 OA
ATOM     23  OE2 GLU     1       2.278   6.904   9.411  1.00  0.00    -0.647 OA
ENDBRANCH  20  21
ENDBRANCH  19  20
ENDBRANCH  17  19
ENDBRANCH  15  17
ENDBRANCH  13  14
ENDBRANCH  11  13
ENDBRANCH   9  10
BRANCH   9  24
ATOM     24  CB  LEU     3      11.756  -0.083   6.421  1.00  0.00     0.034 C 
BRANCH  24  25
ATOM     25  CG  LEU     3      12.063   0.267   4.953  1.00  0.00     0.002 C 
ATOM     26  CD1 LEU     3      13.499   0.774   4.841  1.00  0.00     0.000 C 
ATOM     27  CD2 LEU     3      11.863  -0.948   4.040  1.00  0.00     0.000 C 
ENDBRANCH  24  25
ENDBRANCH   9  24
ENDBRANCH   7   9
ENDBRANCH   5   6
BRANCH   5  28
ATOM     28  CB  ASN     4       8.291  -0.994  10.744  1.00  0.00     0.126 C 
BRANCH  28  29
ATOM     29  CG  ASN     4       7.519   0.162  10.079  1.00  0.00     0.276 C 
ATOM     30  ND2 ASN     4       8.178   1.276   9.906  1.00  0.00    -0.107 N 
ATOM     31  OD1 ASN     4       6.380   0.066   9.663  1.00  0.00    -0.269 OA
ENDBRANCH  28  29
ENDBRANCH   5  28
ENDBRANCH   3   5
ENDBRANCH   1   2
BRANCH   1  32
ATOM     32  CB  ARG     5       6.384  -5.344  12.426  1.00  0.00     0.036 C 
BRANCH  32  33
ATOM     33  CG  ARG     5       7.845  -5.450  12.864  1.00  0.00     0.029 C 
BRANCH  33  34
ATOM     34  CD  ARG     5       8.488  -6.662  12.197  1.00  0.00     0.145 C 
BRANCH  34  35
ATOM     35  NE  ARG     5       9.780  -6.320  11.553  1.00  0.00    -0.083 NA
ATOM     36  CZ  ARG     5       9.981  -6.256  10.229  1.00  0.00     0.782 C 
ATOM     37  NH2 ARG     5      11.096  -5.705   9.722  1.00  0.00     0.063 N 
ATOM     38  NH1 ARG     5       9.038  -6.615   9.369  1.00  0.00     0.063 N 
ENDBRANCH  34  35
ENDBRANCH  33  34
ENDBRANCH  32  33
ENDBRANCH   1  32
BRANCH   1  39
ATOM     39  C   ARG     5       4.797  -4.037  10.985  1.00  0.00     0.256 C 
ATOM     40  O   ARG     5       4.537  -3.060  11.693  1.00  0.00    -0.270 OA
ATOM     41  N   PRO     6       3.950  -4.514  10.068  1.00  0.00    -0.312 N 
ATOM     42  CA  PRO     6       2.562  -4.032   9.889  1.00  0.00     0.165 C 
ATOM     43  CD  PRO     6       4.297  -5.468   8.993  1.00  0.00     0.105 C 
ATOM     44  CB  PRO     6       1.970  -4.937   8.807  1.00  0.00     0.034 C 
ATOM     45  CG  PRO     6       3.183  -5.295   7.960  1.00  0.00     0.027 C 
BRANCH  42  46
ATOM     46  C   PRO     6       1.757  -4.140  11.195  1.00  0.00     0.272 C 
ATOM     47  N   SER     7       1.004  -3.119  11.581  1.00  0.00    -0.226 NA
ATOM     48  O   PRO     6       1.897  -5.124  11.927  1.00  0.00    -0.269 OA
BRANCH  47  49
ATOM     49  CA  SER     7       0.840  -1.822  10.882  1.00  0.00     0.219 C 
BRANCH  49  50
ATOM     50  C   SER     7       1.724  -0.722  11.494  1.00  0.00     0.277 C 
ATOM     51  O   SER     7       2.281  -0.927  12.568  1.00  0.00    -0.268 OA
ATOM     52  N   GLY     8       2.014   0.297  10.697  1.00  0.00    -0.226 NA
BRANCH  52  53
ATOM     53  CA  GLY     8       2.675   1.529  11.201  1.00  0.00     0.218 C 
BRANCH  53  54
ATOM     54  C   GLY     8       2.054   2.889  10.834  1.00  0.00     0.277 C 
ATOM     55  N   GLY     9       0.854   2.873  10.236  1.00  0.00    -0.226 NA
ATOM     56  O   GLY     8       2.630   3.924  11.126  1.00  0.00    -0.268 OA
BRANCH  55  57
ATOM     57  CA  GLY     9       0.158   4.098   9.793  1.00  0.00     0.218 C 
BRANCH  57  58
ATOM     58  C   GLY     9      -1.150   4.324  10.587  1.00  0.00     0.277 C 
ATOM     59  O   GLY     9      -1.113   4.951  11.638  1.00  0.00    -0.268 OA
ATOM     60  N   CYS    10      -2.283   3.720  10.255  1.00  0.00    -0.228 NA
BRANCH  60  61
ATOM     61  CA  CYS    10      -2.509   2.745   9.161  1.00  0.00     0.198 C 
BRANCH  61  62
ATOM     62  CB  CYS    10      -3.846   2.007   9.303  1.00  0.00     0.103 C 
ATOM     63  SG  CYS    10      -3.907   0.549  10.400  1.00  0.00    -0.080 SA
ENDBRANCH  61  62
BRANCH  61  64
ATOM     64  C   CYS    10      -2.565   3.372   7.767  1.00  0.00     0.275 C 
ATOM     65  O   CYS    10      -1.961   2.833   6.841  1.00  0.00    -0.268 OA
ATOM     66  N   GLY    11      -3.525   4.271   7.623  1.00  0.00    -0.225 NA
BRANCH  66  67
ATOM     67  CA  GLY    11      -3.361   5.436   6.742  1.00  0.00     0.226 C 
BRANCH  67  68
ATOM     68  C   GLY    11      -3.252   6.636   7.695  1.00  0.00     0.211 C 
ATOM     69  O2  GLY    11      -4.085   6.663   8.627  1.00  0.00    -0.646 OA
ATOM     70  O1  GLY    11      -2.159   7.248   7.690  1.00  0.00    -0.646 OA
ENDBRANCH  67  68
ENDBRANCH  66  67
ENDBRANCH  61  64
ENDBRANCH  60  61
ENDBRANCH  57  58
ENDBRANCH  55  57
ENDBRANCH  53  54
ENDBRANCH  52  53
ENDBRANCH  49  50
BRANCH  49  71
ATOM     71  CB  SER     7      -0.607  -1.328  10.937  1.00  0.00     0.216 C 
ATOM     72  OG  SER     7      -0.884  -0.779  12.226  1.00  0.00    -0.218 OA
ENDBRANCH  49  71
ENDBRANCH  47  49
ENDBRANCH  42  46
ENDBRANCH   1  39
TORSDOF 33
ENDMDL
MODEL 9
REMARK VINA RESULT:      -5.4     16.504     22.217
REMARK WARNING: 32 MAX_TORS EXCEEDED!!!
REMARK  33 active torsions:
REMARK  status: ('A' for Active; 'I' for Inactive)
REMARK    1  A    between atoms: CA_2  and  C_8 
REMARK    2  A    between atoms: CA_2  and  CB_3 
REMARK    3  A    between atoms: CB_3  and  CG_4 
REMARK    4  A    between atoms: CG_4  and  CD_5 
REMARK       I    between atoms: C_8  and  N_10 
REMARK    5  A    between atoms: N_10  and  CA_11 
REMARK    6  A    between atoms: CA_11  and  C_12 
REMARK       I    between atoms: C_12  and  N_14 
REMARK    7  A    between atoms: N_14  and  CA_15 
REMARK    8  A    between atoms: CA_15  and  C_20 
REMARK    9  A    between atoms: CA_15  and  CB_16 
REMARK   10  A    between atoms: CB_16  and  CG_17 
REMARK       I    between atoms: C_20  and  N_22 
REMARK   11  A    between atoms: N_22  and  CA_23 
REMARK   12  A    between atoms: CA_23  and  CB_24 
REMARK   13  A    between atoms: CA_23  and  C_28 
REMARK   14  A    between atoms: CB_24  and  CG_25 
REMARK       I    between atoms: C_28  and  N_30 
REMARK   15  A    between atoms: N_30  and  CA_31 
REMARK   16  A    between atoms: CA_31  and  CB_32 
REMARK   17  A    between atoms: CA_31  and  C_39 
REMARK   18  A    between atoms: CB_32  and  CG_33 
REMARK   19  A    between atoms: CG_33  and  CD_34 
REMARK   20  A    between atoms: CD_34  and  NE_35 
REMARK       I    between atoms: C_39  and  N_41 
REMARK   21  A    between atoms: CA_42  and  C_46 
REMARK       I    between atoms: C_46  and  N_48 
REMARK   22  A    between atoms: N_48  and  CA_49 
REMARK   23  A    between atoms: CA_49  and  C_52 
REMARK   24  A    between atoms: CA_49  and  CB_50 
REMARK       I    between atoms: C_52  and  N_54 
REMARK   25  A    between atoms: N_54  and  CA_55 
REMARK   26  A    between atoms: CA_55  and  C_56 
REMARK       I    between atoms: C_56  and  N_58 
REMARK   27  A    between atoms: N_58  and  CA_59 
REMARK   28  A    between atoms: CA_59  and  C_60 
REMARK       I    between atoms: C_60  and  N_62 
REMARK   29  A    between atoms: N_62  and  CA_63 
REMARK   30  A    between atoms: CA_63  and  CB_64 
REMARK   31  A    between atoms: CA_63  and  C_66 
REMARK       I    between atoms: C_66  and  N_68 
REMARK   32  A    between atoms: N_68  and  CA_69 
REMARK   33  A    between atoms: CA_69  and  C_70 
ROOT
ATOM      1  CA  ARG     5      -3.084   2.050   9.108  1.00  0.00     0.185 C 
ENDROOT
BRANCH   1   2
ATOM      2  N   ARG     5      -2.630   3.453   9.116  1.00  0.00    -0.229 NA
ATOM      3  C   ASN     4      -1.901   4.033   8.176  1.00  0.00     0.275 C 
ATOM      4  O   ASN     4      -1.293   3.425   7.301  1.00  0.00    -0.268 OA
BRANCH   3   5
ATOM      5  CA  ASN     4      -1.608   5.517   8.480  1.00  0.00     0.196 C 
BRANCH   5   6
ATOM      6  N   ASN     4      -0.299   5.917   7.921  1.00  0.00    -0.228 NA
ATOM      7  C   LEU     3       0.693   6.401   8.664  1.00  0.00     0.274 C 
ATOM      8  O   LEU     3       0.646   6.565   9.887  1.00  0.00    -0.268 OA
BRANCH   7   9
ATOM      9  CA  LEU     3       1.982   6.702   7.901  1.00  0.00     0.186 C 
BRANCH   9  10
ATOM     10  N   LEU     3       2.648   5.432   7.533  1.00  0.00    -0.229 NA
ATOM     11  C   GLY     2       3.738   4.978   8.159  1.00  0.00     0.277 C 
ATOM     12  O   GLY     2       4.185   5.483   9.178  1.00  0.00    -0.268 OA
BRANCH  11  13
ATOM     13  CA  GLY     2       4.324   3.655   7.621  1.00  0.00     0.218 C 
BRANCH  13  14
ATOM     14  N   GLY     2       5.642   3.699   6.944  1.00  0.00    -0.226 NA
ATOM     15  C   GLU     1       6.739   3.162   7.490  1.00  0.00     0.289 C 
ATOM     16  O   GLU     1       6.670   2.468   8.491  1.00  0.00    -0.268 OA
BRANCH  15  17
ATOM     17  CA  GLU     1       8.103   3.364   6.778  1.00  0.00     0.381 C 
ATOM     18  N   GLU     1       9.267   3.088   7.638  1.00  0.00     0.626 N 
BRANCH  17  19
ATOM     19  CB  GLU     1       8.127   2.491   5.506  1.00  0.00     0.060 C 
BRANCH  19  20
ATOM     20  CG  GLU     1       8.826   3.017   4.244  1.00  0.00     0.100 C 
BRANCH  20  21
ATOM     21  CD  GLU     1      10.198   2.368   4.009  1.00  0.00     0.185 C 
ATOM     22  OE1 GLU     1      11.139   2.688   4.758  1.00  0.00    -0.647 OA
ATOM     23  OE2 GLU     1      10.323   1.573   3.061  1.00  0.00    -0.647 OA
ENDBRANCH  20  21
ENDBRANCH  19  20
ENDBRANCH  17  19
ENDBRANCH  15  17
ENDBRANCH  13  14
ENDBRANCH  11  13
ENDBRANCH   9  10
BRANCH   9  24
ATOM     24  CB  LEU     3       1.634   7.509   6.644  1.00  0.00     0.034 C 
BRANCH  24  25
ATOM     25  CG  LEU     3       1.701   9.034   6.846  1.00  0.00     0.002 C 
ATOM     26  CD1 LEU     3       0.284   9.595   6.958  1.00  0.00     0.000 C 
ATOM     27  CD2 LEU     3       2.508   9.392   8.099  1.00  0.00     0.000 C 
ENDBRANCH  24  25
ENDBRANCH   9  24
ENDBRANCH   7   9
ENDBRANCH   5   6
BRANCH   5  28
ATOM     28  CB  ASN     4      -2.719   6.433   7.938  1.00  0.00     0.126 C 
BRANCH  28  29
ATOM     29  CG  ASN     4      -3.334   7.359   9.005  1.00  0.00     0.276 C 
ATOM     30  ND2 ASN     4      -2.515   7.825   9.910  1.00  0.00    -0.107 N 
ATOM     31  OD1 ASN     4      -4.496   7.717   9.004  1.00  0.00    -0.269 OA
ENDBRANCH  28  29
ENDBRANCH   5  28
ENDBRANCH   3   5
ENDBRANCH   1   2
BRANCH   1  32
ATOM     32  CB  ARG     5      -3.392   1.593   7.678  1.00  0.00     0.036 C 
BRANCH  32  33
ATOM     33  CG  ARG     5      -4.744   2.077   7.151  1.00  0.00     0.029 C 
BRANCH  33  34
ATOM     34  CD  ARG     5      -4.664   2.254   5.638  1.00  0.00     0.145 C 
BRANCH  34  35
ATOM     35  NE  ARG     5      -4.108   3.577   5.263  1.00  0.00    -0.083 NA
ATOM     36  CZ  ARG     5      -4.839   4.628   4.863  1.00  0.00     0.782 C 
ATOM     37  NH2 ARG     5      -4.300   5.856   4.777  1.00  0.00     0.063 N 
ATOM     38  NH1 ARG     5      -6.145   4.524   4.660  1.00  0.00     0.063 N 
ENDBRANCH  34  35
ENDBRANCH  33  34
ENDBRANCH  32  33
ENDBRANCH   1  32
BRANCH   1  39
ATOM     39  C   ARG     5      -1.989   1.152   9.713  1.00  0.00     0.256 C 
ATOM     40  O   ARG     5      -1.177   0.592   8.970  1.00  0.00    -0.270 OA
ATOM     41  N   PRO     6      -1.908   1.101  11.046  1.00  0.00    -0.312 N 
ATOM     42  CA  PRO     6      -0.939   0.263  11.788  1.00  0.00     0.165 C 
ATOM     43  CD  PRO     6      -2.644   1.975  11.984  1.00  0.00     0.105 C 
ATOM     44  CB  PRO     6      -1.297   0.462  13.261  1.00  0.00     0.034 C 
ATOM     45  CG  PRO     6      -1.852   1.879  13.289  1.00  0.00     0.027 C 
BRANCH  42  46
ATOM     46  C   PRO     6      -1.057  -1.218  11.390  1.00  0.00     0.272 C 
ATOM     47  N   SER     7       0.031  -1.881  11.020  1.00  0.00    -0.226 NA
ATOM     48  O   PRO     6      -2.168  -1.750  11.312  1.00  0.00    -0.269 OA
BRANCH  47  49
ATOM     49  CA  SER     7       1.410  -1.345  10.931  1.00  0.00     0.219 C 
BRANCH  49  50
ATOM     50  C   SER     7       2.209  -1.998   9.790  1.00  0.00     0.277 C 
ATOM     51  O   SER     7       2.903  -1.295   9.063  1.00  0.00    -0.268 OA
ATOM     52  N   GLY     8       2.276  -3.322   9.816  1.00  0.00    -0.226 NA
BRANCH  52  53
ATOM     53  CA  GLY     8       2.826  -4.106   8.679  1.00  0.00     0.218 C 
BRANCH  53  54
ATOM     54  C   GLY     8       4.195  -4.785   8.860  1.00  0.00     0.277 C 
ATOM     55  N   GLY     9       5.217  -4.009   9.250  1.00  0.00    -0.226 NA
ATOM     56  O   GLY     8       4.310  -5.988   8.692  1.00  0.00    -0.268 OA
BRANCH  55  57
ATOM     57  CA  GLY     9       6.593  -4.515   9.425  1.00  0.00     0.218 C 
BRANCH  57  58
ATOM     58  C   GLY     9       7.055  -4.401  10.898  1.00  0.00     0.277 C 
ATOM     59  O   GLY     9       6.812  -5.315  11.675  1.00  0.00    -0.268 OA
ATOM     60  N   CYS    10       7.558  -3.277  11.387  1.00  0.00    -0.228 NA
BRANCH  60  61
ATOM     61  CA  CYS    10       7.734  -1.978  10.692  1.00  0.00     0.198 C 
BRANCH  61  62
ATOM     62  CB  CYS    10       7.960  -0.818  11.669  1.00  0.00     0.103 C 
ATOM     63  SG  CYS    10       8.684   0.724  11.014  1.00  0.00    -0.080 SA
ENDBRANCH  61  62
BRANCH  61  64
ATOM     64  C   CYS    10       8.944  -1.929   9.757  1.00  0.00     0.275 C 
ATOM     65  O   CYS    10      10.008  -2.426  10.123  1.00  0.00    -0.268 OA
ATOM     66  N   GLY    11       8.640  -1.630   8.504  1.00  0.00    -0.225 NA
BRANCH  66  67
ATOM     67  CA  GLY    11       9.560  -0.866   7.651  1.00  0.00     0.226 C 
BRANCH  67  68
ATOM     68  C   GLY    11       9.230  -1.312   6.218  1.00  0.00     0.211 C 
ATOM     69  O2  GLY    11       8.076  -1.762   6.047  1.00  0.00    -0.646 OA
ATOM     70  O1  GLY    11       9.965  -0.855   5.313  1.00  0.00    -0.646 OA
ENDBRANCH  67  68
ENDBRANCH  66  67
ENDBRANCH  61  64
ENDBRANCH  60  61
ENDBRANCH  57  58
ENDBRANCH  55  57
ENDBRANCH  53  54
ENDBRANCH  52  53
ENDBRANCH  49  50
BRANCH  49  71
ATOM     71  CB  SER     7       2.192  -1.576  12.226  1.00  0.00     0.216 C 
ATOM     72  OG  SER     7       1.506  -2.524  13.045  1.00  0.00    -0.218 OA
ENDBRANCH  49  71
ENDBRANCH  47  49
ENDBRANCH  42  46
ENDBRANCH   1  39
TORSDOF 33
ENDMDL
