MODEL 1
REMARK VINA RESULT:      -4.4      0.000      0.000
REMARK WARNING: 32 MAX_TORS EXCEEDED!!!
REMARK  42 active torsions:
REMARK  status: ('A' for Active; 'I' for Inactive)
REMARK    1  A    between atoms: CA_2  and  CB_3 
REMARK    2  A    between atoms: CA_2  and  C_11 
REMARK    3  A    between atoms: CB_3  and  CG_4 
REMARK       I    between atoms: C_11  and  N_13 
REMARK    4  A    between atoms: N_13  and  CA_14 
REMARK    5  A    between atoms: CA_14  and  CB_15 
REMARK    6  A    between atoms: CA_14  and  C_19 
REMARK    7  A    between atoms: CB_15  and  CG_16 
REMARK       I    between atoms: C_19  and  N_21 
REMARK    8  A    between atoms: CA_22  and  C_26 
REMARK       I    between atoms: C_26  and  N_28 
REMARK    9  A    between atoms: N_28  and  CA_29 
REMARK   10  A    between atoms: CA_29  and  C_35 
REMARK   11  A    between atoms: CA_29  and  CB_30 
REMARK   12  A    between atoms: CB_30  and  CG_31 
REMARK   13  A    between atoms: CG_31  and  CD_32 
REMARK       I    between atoms: C_35  and  N_37 
REMARK   14  A    between atoms: N_37  and  CA_38 
REMARK   15  A    between atoms: CA_38  and  CB_39 
REMARK   16  A    between atoms: CA_38  and  C_47 
REMARK   17  A    between atoms: CB_39  and  CG_40 
REMARK       I    between atoms: C_47  and  N_49 
REMARK   18  A    between atoms: N_49  and  CA_50 
REMARK   19  A    between atoms: CA_50  and  CB_51 
REMARK   20  A    between atoms: CA_50  and  C_58 
REMARK   21  A    between atoms: CB_51  and  CG_52 
REMARK   22  A    between atoms: CG_52  and  CD_53 
REMARK   23  A    between atoms: CD_53  and  NE_54 
REMARK       I    between atoms: C_58  and  N_60 
REMARK   24  A    between atoms: N_60  and  CA_61 
REMARK   25  A    between atoms: CA_61  and  C_66 
REMARK   26  A    between atoms: CA_61  and  CB_62 
REMARK   27  A    between atoms: CB_62  and  CG_63 
REMARK       I    between atoms: C_66  and  N_68 
REMARK   28  A    between atoms: N_68  and  CA_69 
REMARK   29  A    between atoms: CA_69  and  CB_70 
REMARK   30  A    between atoms: CA_69  and  C_77 
REMARK   31  A    between atoms: CB_70  and  CG_71 
REMARK       I    between atoms: C_77  and  N_79 
REMARK   32  A    between atoms: N_79  and  CA_80 
REMARK   33  A    between atoms: CA_80  and  CB_81 
REMARK   34  A    between atoms: CA_80  and  C_91 
REMARK   35  A    between atoms: CB_81  and  CG_82 
REMARK       I    between atoms: C_91  and  N_93 
REMARK   36  A    between atoms: N_93  and  CA_94 
REMARK   37  A    between atoms: CA_94  and  C_95 
REMARK       I    between atoms: C_95  and  N_97 
REMARK   38  A    between atoms: N_97  and  CA_98 
REMARK   39  A    between atoms: CA_98  and  C_101 
REMARK   40  A    between atoms: CA_98  and  CB_99 
REMARK       I    between atoms: C_101  and  N_103 
REMARK   41  A    between atoms: N_103  and  CA_104 
REMARK   42  A    between atoms: CA_104  and  C_105 
ROOT
ATOM      1  CA  ARG     6       1.287   7.290   9.338  1.00  0.00     0.186 C 
ENDROOT
BRANCH   1   2
ATOM      2  N   ARG     6      -0.010   6.819   8.798  1.00  0.00    -0.229 NA
ATOM      3  C   TYR     5      -1.091   7.607   8.736  1.00  0.00     0.275 C 
ATOM      4  O   TYR     5      -1.069   8.784   9.097  1.00  0.00    -0.268 OA
BRANCH   3   5
ATOM      5  CA  TYR     5      -2.352   7.017   8.086  1.00  0.00     0.191 C 
BRANCH   5   6
ATOM      6  N   TYR     5      -2.992   7.925   7.099  1.00  0.00    -0.228 NA
ATOM      7  C   GLU     4      -4.286   8.278   7.158  1.00  0.00     0.274 C 
ATOM      8  O   GLU     4      -5.007   7.991   8.105  1.00  0.00    -0.268 OA
BRANCH   7   9
ATOM      9  CA  GLU     4      -4.746   9.338   6.137  1.00  0.00     0.187 C 
BRANCH   9  10
ATOM     10  CB  GLU     4      -3.698   9.476   5.020  1.00  0.00     0.045 C 
BRANCH  10  11
ATOM     11  CG  GLU     4      -4.194   9.212   3.581  1.00  0.00     0.100 C 
BRANCH  11  12
ATOM     12  CD  GLU     4      -4.985   7.915   3.417  1.00  0.00     0.185 C 
ATOM     13  OE1 GLU     4      -6.241   7.999   3.425  1.00  0.00    -0.647 OA
ATOM     14  OE2 GLU     4      -4.409   6.860   3.752  1.00  0.00    -0.647 OA
ENDBRANCH  11  12
ENDBRANCH  10  11
ENDBRANCH   9  10
BRANCH   9  15
ATOM     15  N   GLU     4      -4.971  10.667   6.738  1.00  0.00    -0.229 NA
ATOM     16  C   PRO     3      -6.114  11.190   7.167  1.00  0.00     0.272 C 
ATOM     17  O   PRO     3      -7.096  10.511   7.471  1.00  0.00    -0.269 OA
BRANCH  16  18
ATOM     18  CA  PRO     3      -6.009  12.604   7.743  1.00  0.00     0.165 C 
ATOM     19  N   PRO     3      -7.055  13.541   7.281  1.00  0.00    -0.312 N 
ATOM     20  CD  PRO     3      -7.504  14.387   8.416  1.00  0.00     0.105 C 
ATOM     21  C   ASP     2      -7.412  13.693   5.992  1.00  0.00     0.257 C 
ATOM     22  CG  PRO     3      -6.516  14.060   9.546  1.00  0.00     0.027 C 
ATOM     23  CB  PRO     3      -6.108  12.617   9.266  1.00  0.00     0.034 C 
ATOM     24  O   ASP     2      -6.723  13.197   5.089  1.00  0.00    -0.270 OA
BRANCH  21  25
ATOM     25  CA  ASP     2      -8.458  14.766   5.615  1.00  0.00     0.195 C 
BRANCH  25  26
ATOM     26  CB  ASP     2      -8.570  15.985   6.567  1.00  0.00     0.132 C 
BRANCH  26  27
ATOM     27  CG  ASP     2      -9.607  16.991   6.033  1.00  0.00     0.188 C 
ATOM     28  OD2 ASP     2      -9.137  17.957   5.380  1.00  0.00    -0.647 OA
ATOM     29  OD1 ASP     2     -10.658  17.129   6.706  1.00  0.00    -0.647 OA
ENDBRANCH  26  27
ENDBRANCH  25  26
BRANCH  25  30
ATOM     30  N   ASP     2      -9.830  14.229   5.623  1.00  0.00    -0.228 NA
ATOM     31  C   TYR     1     -10.453  13.654   4.621  1.00  0.00     0.289 C 
ATOM     32  O   TYR     1      -9.989  13.324   3.525  1.00  0.00    -0.268 OA
BRANCH  31  33
ATOM     33  CA  TYR     1     -11.930  13.422   4.925  1.00  0.00     0.385 C 
ATOM     34  N   TYR     1     -12.669  14.630   4.523  1.00  0.00     0.626 N 
BRANCH  33  35
ATOM     35  CB  TYR     1     -12.366  12.184   4.145  1.00  0.00     0.075 C 
BRANCH  35  36
ATOM     36  CG  TYR     1     -12.698  10.988   5.052  1.00  0.00    -0.019 A 
ATOM     37  CD2 TYR     1     -13.857  10.957   5.812  1.00  0.00    -0.002 A 
ATOM     38  CE2 TYR     1     -14.199   9.812   6.515  1.00  0.00     0.027 A 
ATOM     39  CZ  TYR     1     -13.361   8.700   6.453  1.00  0.00     0.131 A 
ATOM     40  CE1 TYR     1     -12.185   8.752   5.726  1.00  0.00     0.027 A 
ATOM     41  OH  TYR     1     -13.760   7.520   6.970  1.00  0.00    -0.190 OA
ATOM     42  CD1 TYR     1     -11.843   9.897   5.022  1.00  0.00    -0.002 A 
ENDBRANCH  35  36
ENDBRANCH  33  35
ENDBRANCH  31  33
ENDBRANCH  25  30
ENDBRANCH  21  25
ENDBRANCH  16  18
ENDBRANCH   9  15
ENDBRANCH   7   9
ENDBRANCH   5   6
BRANCH   5  43
ATOM     43  CB  TYR     5      -2.048   5.658   7.432  1.00  0.00     0.060 C 
BRANCH  43  44
ATOM     44  CG  TYR     5      -3.056   4.573   7.846  1.00  0.00    -0.020 A 
ATOM     45  CD2 TYR     5      -3.319   4.327   9.188  1.00  0.00    -0.002 A 
ATOM     46  CE2 TYR     5      -4.238   3.348   9.553  1.00  0.00     0.027 A 
ATOM     47  CZ  TYR     5      -4.894   2.615   8.577  1.00  0.00     0.131 A 
ATOM     48  CE1 TYR     5      -4.650   2.867   7.231  1.00  0.00     0.027 A 
ATOM     49  OH  TYR     5      -5.680   1.572   8.922  1.00  0.00    -0.190 OA
ATOM     50  CD1 TYR     5      -3.722   3.843   6.868  1.00  0.00    -0.002 A 
ENDBRANCH  43  44
ENDBRANCH   5  43
ENDBRANCH   3   5
ENDBRANCH   1   2
BRANCH   1  51
ATOM     51  CB  ARG     6       2.092   6.179  10.005  1.00  0.00     0.036 C 
BRANCH  51  52
ATOM     52  CG  ARG     6       2.148   4.886   9.189  1.00  0.00     0.029 C 
BRANCH  52  53
ATOM     53  CD  ARG     6       1.423   3.762   9.924  1.00  0.00     0.145 C 
BRANCH  53  54
ATOM     54  NE  ARG     6       1.498   2.501   9.167  1.00  0.00    -0.083 NA
ATOM     55  CZ  ARG     6       2.301   1.461   9.460  1.00  0.00     0.782 C 
ATOM     56  NH2 ARG     6       2.350   0.396   8.656  1.00  0.00     0.063 N 
ATOM     57  NH1 ARG     6       3.117   1.517  10.506  1.00  0.00     0.063 N 
ENDBRANCH  53  54
ENDBRANCH  52  53
ENDBRANCH  51  52
ENDBRANCH   1  51
BRANCH   1  58
ATOM     58  C   ARG     6       2.189   7.894   8.253  1.00  0.00     0.274 C 
ATOM     59  N   ASN     7       3.151   8.704   8.688  1.00  0.00    -0.228 NA
ATOM     60  O   ARG     6       1.982   7.611   7.073  1.00  0.00    -0.268 OA
BRANCH  59  61
ATOM     61  CA  ASN     7       4.175   9.300   7.805  1.00  0.00     0.196 C 
BRANCH  61  62
ATOM     62  C   ASN     7       5.571   9.272   8.456  1.00  0.00     0.275 C 
ATOM     63  N   PHE     8       6.279   8.139   8.328  1.00  0.00    -0.228 NA
ATOM     64  O   ASN     7       6.094  10.344   8.692  1.00  0.00    -0.268 OA
BRANCH  63  65
ATOM     65  CA  PHE     8       7.669   7.949   8.808  1.00  0.00     0.191 C 
BRANCH  65  66
ATOM     66  CB  PHE     8       7.625   7.093  10.082  1.00  0.00     0.060 C 
BRANCH  66  67
ATOM     67  CG  PHE     8       7.345   5.598   9.834  1.00  0.00    -0.020 A 
ATOM     68  CD1 PHE     8       6.038   5.151   9.700  1.00  0.00    -0.004 A 
ATOM     69  CE1 PHE     8       5.780   3.786   9.578  1.00  0.00    -0.000 A 
ATOM     70  CZ  PHE     8       6.833   2.885   9.576  1.00  0.00    -0.000 A 
ATOM     71  CE2 PHE     8       8.145   3.332   9.696  1.00  0.00    -0.000 A 
ATOM     72  CD2 PHE     8       8.402   4.697   9.818  1.00  0.00    -0.004 A 
ENDBRANCH  66  67
ENDBRANCH  65  66
BRANCH  65  73
ATOM     73  C   PHE     8       8.647   7.367   7.763  1.00  0.00     0.275 C 
ATOM     74  N   TRP     9       9.867   7.906   7.727  1.00  0.00    -0.228 NA
ATOM     75  O   PHE     8       8.243   6.635   6.856  1.00  0.00    -0.268 OA
BRANCH  74  76
ATOM     76  CA  TRP     9      10.942   7.364   6.860  1.00  0.00     0.191 C 
BRANCH  76  77
ATOM     77  CB  TRP     9      11.895   8.508   6.477  1.00  0.00     0.062 C 
BRANCH  77  78
ATOM     78  CG  TRP     9      11.733   9.746   7.358  1.00  0.00     0.001 A 
ATOM     79  CD1 TRP     9      12.173   9.879   8.606  1.00  0.00     0.095 A 
ATOM     80  NE1 TRP     9      11.615  10.944   9.167  1.00  0.00    -0.244 NA
ATOM     81  CE2 TRP     9      10.816  11.538   8.293  1.00  0.00     0.081 A 
ATOM     82  CD2 TRP     9      10.851  10.796   7.123  1.00  0.00     0.015 A 
ATOM     83  CZ2 TRP     9       9.941  12.620   8.392  1.00  0.00     0.019 A 
ATOM     84  CE3 TRP     9      10.017  11.107   6.059  1.00  0.00     0.001 A 
ATOM     85  CZ3 TRP     9       9.135  12.177   6.161  1.00  0.00     0.000 A 
ATOM     86  CH2 TRP     9       9.115  12.942   7.326  1.00  0.00     0.002 A 
ENDBRANCH  77  78
ENDBRANCH  76  77
BRANCH  76  87
ATOM     87  C   TRP     9      11.707   6.163   7.462  1.00  0.00     0.275 C 
ATOM     88  O   TRP     9      12.242   6.246   8.564  1.00  0.00    -0.268 OA
ATOM     89  N   GLY    10      11.661   5.028   6.767  1.00  0.00    -0.226 NA
BRANCH  89  90
ATOM     90  CA  GLY    10      12.297   3.753   7.200  1.00  0.00     0.218 C 
BRANCH  90  91
ATOM     91  C   GLY    10      12.684   2.770   6.084  1.00  0.00     0.277 C 
ATOM     92  N   CYS    11      12.207   1.534   6.232  1.00  0.00    -0.228 NA
ATOM     93  O   GLY    10      13.510   3.084   5.235  1.00  0.00    -0.268 OA
BRANCH  92  94
ATOM     94  CA  CYS    11      12.402   0.398   5.304  1.00  0.00     0.198 C 
BRANCH  94  95
ATOM     95  C   CYS    11      11.040  -0.297   5.108  1.00  0.00     0.275 C 
ATOM     96  O   CYS    11      10.844  -0.946   4.086  1.00  0.00    -0.268 OA
ATOM     97  N   GLY    12      10.093   0.021   5.978  1.00  0.00    -0.225 NA
BRANCH  97  98
ATOM     98  CA  GLY    12       8.734  -0.539   5.924  1.00  0.00     0.226 C 
BRANCH  98  99
ATOM     99  C   GLY    12       8.411  -1.143   7.310  1.00  0.00     0.211 C 
ATOM    100  O1  GLY    12       9.208  -0.872   8.243  1.00  0.00    -0.646 OA
ATOM    101  O2  GLY    12       7.373  -1.822   7.420  1.00  0.00    -0.646 OA
ENDBRANCH  98  99
ENDBRANCH  97  98
ENDBRANCH  94  95
BRANCH  94 102
ATOM    102  CB  CYS    11      13.311  -0.651   5.940  1.00  0.00     0.103 C 
ATOM    103  SG  CYS    11      15.082  -0.197   6.096  1.00  0.00    -0.080 SA
ENDBRANCH  94 102
ENDBRANCH  92  94
ENDBRANCH  90  91
ENDBRANCH  89  90
ENDBRANCH  76  87
ENDBRANCH  74  76
ENDBRANCH  65  73
ENDBRANCH  63  65
ENDBRANCH  61  62
BRANCH  61 104
ATOM    104  CB  ASN     7       3.793  10.727   7.394  1.00  0.00     0.126 C 
BRANCH 104 105
ATOM    105  CG  ASN     7       2.758  11.409   8.308  1.00  0.00     0.276 C 
ATOM    106  ND2 ASN     7       1.552  11.550   7.809  1.00  0.00    -0.107 N 
ATOM    107  OD1 ASN     7       3.013  11.954   9.375  1.00  0.00    -0.269 OA
ENDBRANCH 104 105
ENDBRANCH  61 104
ENDBRANCH  59  61
ENDBRANCH   1  58
TORSDOF 42
ENDMDL
MODEL 2
REMARK VINA RESULT:      -4.3      5.044      9.026
REMARK WARNING: 32 MAX_TORS EXCEEDED!!!
REMARK  42 active torsions:
REMARK  status: ('A' for Active; 'I' for Inactive)
REMARK    1  A    between atoms: CA_2  and  CB_3 
REMARK    2  A    between atoms: CA_2  and  C_11 
REMARK    3  A    between atoms: CB_3  and  CG_4 
REMARK       I    between atoms: C_11  and  N_13 
REMARK    4  A    between atoms: N_13  and  CA_14 
REMARK    5  A    between atoms: CA_14  and  CB_15 
REMARK    6  A    between atoms: CA_14  and  C_19 
REMARK    7  A    between atoms: CB_15  and  CG_16 
REMARK       I    between atoms: C_19  and  N_21 
REMARK    8  A    between atoms: CA_22  and  C_26 
REMARK       I    between atoms: C_26  and  N_28 
REMARK    9  A    between atoms: N_28  and  CA_29 
REMARK   10  A    between atoms: CA_29  and  C_35 
REMARK   11  A    between atoms: CA_29  and  CB_30 
REMARK   12  A    between atoms: CB_30  and  CG_31 
REMARK   13  A    between atoms: CG_31  and  CD_32 
REMARK       I    between atoms: C_35  and  N_37 
REMARK   14  A    between atoms: N_37  and  CA_38 
REMARK   15  A    between atoms: CA_38  and  CB_39 
REMARK   16  A    between atoms: CA_38  and  C_47 
REMARK   17  A    between atoms: CB_39  and  CG_40 
REMARK       I    between atoms: C_47  and  N_49 
REMARK   18  A    between atoms: N_49  and  CA_50 
REMARK   19  A    between atoms: CA_50  and  CB_51 
REMARK   20  A    between atoms: CA_50  and  C_58 
REMARK   21  A    between atoms: CB_51  and  CG_52 
REMARK   22  A    between atoms: CG_52  and  CD_53 
REMARK   23  A    between atoms: CD_53  and  NE_54 
REMARK       I    between atoms: C_58  and  N_60 
REMARK   24  A    between atoms: N_60  and  CA_61 
REMARK   25  A    between atoms: CA_61  and  C_66 
REMARK   26  A    between atoms: CA_61  and  CB_62 
REMARK   27  A    between atoms: CB_62  and  CG_63 
REMARK       I    between atoms: C_66  and  N_68 
REMARK   28  A    between atoms: N_68  and  CA_69 
REMARK   29  A    between atoms: CA_69  and  CB_70 
REMARK   30  A    between atoms: CA_69  and  C_77 
REMARK   31  A    between atoms: CB_70  and  CG_71 
REMARK       I    between atoms: C_77  and  N_79 
REMARK   32  A    between atoms: N_79  and  CA_80 
REMARK   33  A    between atoms: CA_80  and  CB_81 
REMARK   34  A    between atoms: CA_80  and  C_91 
REMARK   35  A    between atoms: CB_81  and  CG_82 
REMARK       I    between atoms: C_91  and  N_93 
REMARK   36  A    between atoms: N_93  and  CA_94 
REMARK   37  A    between atoms: CA_94  and  C_95 
REMARK       I    between atoms: C_95  and  N_97 
REMARK   38  A    between atoms: N_97  and  CA_98 
REMARK   39  A    between atoms: CA_98  and  C_101 
REMARK   40  A    between atoms: CA_98  and  CB_99 
REMARK       I    between atoms: C_101  and  N_103 
REMARK   41  A    between atoms: N_103  and  CA_104 
REMARK   42  A    between atoms: CA_104  and  C_105 
ROOT
ATOM      1  CA  ARG     6       0.773   6.314   9.257  1.00  0.00     0.186 C 
ENDROOT
BRANCH   1   2
ATOM      2  N   ARG     6      -0.416   6.988   8.685  1.00  0.00    -0.229 NA
ATOM      3  C   TYR     5      -1.061   7.972   9.326  1.00  0.00     0.275 C 
ATOM      4  O   TYR     5      -0.689   8.401  10.418  1.00  0.00    -0.268 OA
BRANCH   3   5
ATOM      5  CA  TYR     5      -2.235   8.637   8.589  1.00  0.00     0.191 C 
BRANCH   5   6
ATOM      6  N   TYR     5      -1.982  10.056   8.230  1.00  0.00    -0.228 NA
ATOM      7  C   GLU     4      -2.409  11.089   8.976  1.00  0.00     0.274 C 
ATOM      8  O   GLU     4      -2.916  10.940  10.080  1.00  0.00    -0.268 OA
BRANCH   7   9
ATOM      9  CA  GLU     4      -1.937  12.488   8.529  1.00  0.00     0.187 C 
BRANCH   9  10
ATOM     10  CB  GLU     4      -0.592  12.822   9.196  1.00  0.00     0.045 C 
BRANCH  10  11
ATOM     11  CG  GLU     4       0.533  13.311   8.257  1.00  0.00     0.100 C 
BRANCH  11  12
ATOM     12  CD  GLU     4       0.736  14.825   8.254  1.00  0.00     0.185 C 
ATOM     13  OE1 GLU     4      -0.107  15.522   8.878  1.00  0.00    -0.647 OA
ATOM     14  OE2 GLU     4       1.386  15.302   7.302  1.00  0.00    -0.647 OA
ENDBRANCH  11  12
ENDBRANCH  10  11
ENDBRANCH   9  10
BRANCH   9  15
ATOM     15  N   GLU     4      -2.900  13.558   8.850  1.00  0.00    -0.229 NA
ATOM     16  C   PRO     3      -4.102  13.763   8.325  1.00  0.00     0.272 C 
ATOM     17  O   PRO     3      -4.752  12.884   7.758  1.00  0.00    -0.269 OA
BRANCH  16  18
ATOM     18  CA  PRO     3      -4.858  14.973   8.878  1.00  0.00     0.165 C 
ATOM     19  N   PRO     3      -5.608  15.752   7.869  1.00  0.00    -0.312 N 
ATOM     20  CD  PRO     3      -6.919  16.166   8.431  1.00  0.00     0.105 C 
ATOM     21  C   ASP     2      -5.093  16.146   6.690  1.00  0.00     0.257 C 
ATOM     22  CG  PRO     3      -6.834  15.781   9.916  1.00  0.00     0.027 C 
ATOM     23  CB  PRO     3      -5.896  14.578   9.926  1.00  0.00     0.034 C 
ATOM     24  O   ASP     2      -3.874  16.055   6.476  1.00  0.00    -0.270 OA
BRANCH  21  25
ATOM     25  CA  ASP     2      -5.940  17.031   5.748  1.00  0.00     0.195 C 
BRANCH  25  26
ATOM     26  CB  ASP     2      -6.317  18.439   6.278  1.00  0.00     0.132 C 
BRANCH  26  27
ATOM     27  CG  ASP     2      -5.345  19.499   5.728  1.00  0.00     0.188 C 
ATOM     28  OD2 ASP     2      -5.765  20.684   5.755  1.00  0.00    -0.647 OA
ATOM     29  OD1 ASP     2      -4.553  19.125   4.827  1.00  0.00    -0.647 OA
ENDBRANCH  26  27
ENDBRANCH  25  26
BRANCH  25  30
ATOM     30  N   ASP     2      -7.257  16.435   5.464  1.00  0.00    -0.228 NA
ATOM     31  C   TYR     1      -7.562  15.648   4.459  1.00  0.00     0.289 C 
ATOM     32  O   TYR     1      -6.798  15.139   3.633  1.00  0.00    -0.268 OA
BRANCH  31  33
ATOM     33  CA  TYR     1      -9.064  15.401   4.362  1.00  0.00     0.385 C 
ATOM     34  N   TYR     1      -9.272  14.205   3.530  1.00  0.00     0.626 N 
BRANCH  33  35
ATOM     35  CB  TYR     1      -9.589  15.223   5.784  1.00  0.00     0.075 C 
BRANCH  35  36
ATOM     36  CG  TYR     1     -10.715  16.207   6.138  1.00  0.00    -0.019 A 
ATOM     37  CD2 TYR     1     -11.972  16.103   5.564  1.00  0.00    -0.002 A 
ATOM     38  CE2 TYR     1     -13.007  16.917   6.000  1.00  0.00     0.027 A 
ATOM     39  CZ  TYR     1     -12.764  17.843   7.013  1.00  0.00     0.131 A 
ATOM     40  CE1 TYR     1     -11.496  17.970   7.552  1.00  0.00     0.027 A 
ATOM     41  OH  TYR     1     -13.787  18.511   7.582  1.00  0.00    -0.190 OA
ATOM     42  CD1 TYR     1     -10.461  17.156   7.117  1.00  0.00    -0.002 A 
ENDBRANCH  35  36
ENDBRANCH  33  35
ENDBRANCH  31  33
ENDBRANCH  25  30
ENDBRANCH  21  25
ENDBRANCH  16  18
ENDBRANCH   9  15
ENDBRANCH   7   9
ENDBRANCH   5   6
BRANCH   5  43
ATOM     43  CB  TYR     5      -2.619   7.836   7.333  1.00  0.00     0.060 C 
BRANCH  43  44
ATOM     44  CG  TYR     5      -3.718   8.530   6.511  1.00  0.00    -0.020 A 
ATOM     45  CD2 TYR     5      -3.481   8.918   5.199  1.00  0.00    -0.002 A 
ATOM     46  CE2 TYR     5      -4.484   9.540   4.461  1.00  0.00     0.027 A 
ATOM     47  CZ  TYR     5      -5.724   9.773   5.035  1.00  0.00     0.131 A 
ATOM     48  CE1 TYR     5      -5.975   9.372   6.343  1.00  0.00     0.027 A 
ATOM     49  OH  TYR     5      -6.654  10.498   4.376  1.00  0.00    -0.190 OA
ATOM     50  CD1 TYR     5      -4.965   8.757   7.083  1.00  0.00    -0.002 A 
ENDBRANCH  43  44
ENDBRANCH   5  43
ENDBRANCH   3   5
ENDBRANCH   1   2
BRANCH   1  51
ATOM     51  CB  ARG     6       0.688   4.793   9.177  1.00  0.00     0.036 C 
BRANCH  51  52
ATOM     52  CG  ARG     6      -0.728   4.245   9.368  1.00  0.00     0.029 C 
BRANCH  52  53
ATOM     53  CD  ARG     6      -1.083   3.284   8.237  1.00  0.00     0.145 C 
BRANCH  53  54
ATOM     54  NE  ARG     6      -1.879   3.960   7.200  1.00  0.00    -0.083 NA
ATOM     55  CZ  ARG     6      -3.218   3.888   7.073  1.00  0.00     0.782 C 
ATOM     56  NH2 ARG     6      -3.833   4.474   6.043  1.00  0.00     0.063 N 
ATOM     57  NH1 ARG     6      -3.935   3.161   7.922  1.00  0.00     0.063 N 
ENDBRANCH  53  54
ENDBRANCH  52  53
ENDBRANCH  51  52
ENDBRANCH   1  51
BRANCH   1  58
ATOM     58  C   ARG     6       2.073   6.719   8.550  1.00  0.00     0.274 C 
ATOM     59  N   ASN     7       2.447   7.985   8.712  1.00  0.00    -0.228 NA
ATOM     60  O   ARG     6       2.683   5.879   7.886  1.00  0.00    -0.268 OA
BRANCH  59  61
ATOM     61  CA  ASN     7       3.717   8.531   8.190  1.00  0.00     0.196 C 
BRANCH  61  62
ATOM     62  C   ASN     7       4.562   9.169   9.311  1.00  0.00     0.275 C 
ATOM     63  N   PHE     8       5.571   9.967   8.931  1.00  0.00    -0.228 NA
ATOM     64  O   ASN     7       4.058   9.236  10.415  1.00  0.00    -0.268 OA
BRANCH  63  65
ATOM     65  CA  PHE     8       6.439  10.736   9.856  1.00  0.00     0.191 C 
BRANCH  65  66
ATOM     66  CB  PHE     8       7.676   9.885  10.173  1.00  0.00     0.060 C 
BRANCH  66  67
ATOM     67  CG  PHE     8       8.238   9.106   8.970  1.00  0.00    -0.020 A 
ATOM     68  CD1 PHE     8       8.000   7.743   8.854  1.00  0.00    -0.004 A 
ATOM     69  CE1 PHE     8       8.594   7.019   7.820  1.00  0.00    -0.000 A 
ATOM     70  CZ  PHE     8       9.406   7.669   6.905  1.00  0.00    -0.000 A 
ATOM     71  CE2 PHE     8       9.635   9.037   7.011  1.00  0.00    -0.000 A 
ATOM     72  CD2 PHE     8       9.041   9.760   8.045  1.00  0.00    -0.004 A 
ENDBRANCH  66  67
ENDBRANCH  65  66
BRANCH  65  73
ATOM     73  C   PHE     8       6.828  12.148   9.364  1.00  0.00     0.275 C 
ATOM     74  N   TRP     9       6.529  12.439   8.097  1.00  0.00    -0.228 NA
ATOM     75  O   PHE     8       7.592  12.860  10.021  1.00  0.00    -0.268 OA
BRANCH  74  76
ATOM     76  CA  TRP     9       6.733  13.795   7.530  1.00  0.00     0.191 C 
BRANCH  76  77
ATOM     77  CB  TRP     9       7.344  13.659   6.126  1.00  0.00     0.062 C 
BRANCH  77  78
ATOM     78  CG  TRP     9       8.853  13.417   6.146  1.00  0.00     0.001 A 
ATOM     79  CD1 TRP     9       9.496  12.442   5.511  1.00  0.00     0.095 A 
ATOM     80  NE1 TRP     9      10.736  12.347   5.975  1.00  0.00    -0.244 NA
ATOM     81  CE2 TRP     9      10.932  13.268   6.905  1.00  0.00     0.081 A 
ATOM     82  CD2 TRP     9       9.746  13.969   7.058  1.00  0.00     0.015 A 
ATOM     83  CZ2 TRP     9      12.003  13.541   7.756  1.00  0.00     0.019 A 
ATOM     84  CE3 TRP     9       9.609  14.925   8.054  1.00  0.00     0.001 A 
ATOM     85  CZ3 TRP     9      10.671  15.189   8.911  1.00  0.00     0.000 A 
ATOM     86  CH2 TRP     9      11.874  14.505   8.745  1.00  0.00     0.002 A 
ENDBRANCH  77  78
ENDBRANCH  76  77
BRANCH  76  87
ATOM     87  C   TRP     9       5.468  14.682   7.518  1.00  0.00     0.275 C 
ATOM     88  O   TRP     9       4.355  14.190   7.361  1.00  0.00    -0.268 OA
ATOM     89  N   GLY    10       5.653  15.974   7.785  1.00  0.00    -0.226 NA
BRANCH  89  90
ATOM     90  CA  GLY    10       4.558  16.980   7.862  1.00  0.00     0.218 C 
BRANCH  90  91
ATOM     91  C   GLY    10       4.318  17.826   6.602  1.00  0.00     0.277 C 
ATOM     92  N   CYS    11       4.104  19.122   6.826  1.00  0.00    -0.228 NA
ATOM     93  O   GLY    10       4.168  17.290   5.510  1.00  0.00    -0.268 OA
BRANCH  92  94
ATOM     94  CA  CYS    11       3.870  20.166   5.803  1.00  0.00     0.198 C 
BRANCH  94  95
ATOM     95  C   CYS    11       2.615  19.775   4.998  1.00  0.00     0.275 C 
ATOM     96  O   CYS    11       2.685  19.718   3.776  1.00  0.00    -0.268 OA
ATOM     97  N   GLY    12       1.481  19.718   5.680  1.00  0.00    -0.225 NA
BRANCH  97  98
ATOM     98  CA  GLY    12       0.190  19.375   5.063  1.00  0.00     0.226 C 
BRANCH  98  99
ATOM     99  C   GLY    12      -0.049  17.861   5.265  1.00  0.00     0.211 C 
ATOM    100  O1  GLY    12       0.580  17.084   4.503  1.00  0.00    -0.646 OA
ATOM    101  O2  GLY    12      -0.814  17.512   6.183  1.00  0.00    -0.646 OA
ENDBRANCH  98  99
ENDBRANCH  97  98
ENDBRANCH  94  95
BRANCH  94 102
ATOM    102  CB  CYS    11       5.017  20.183   4.796  1.00  0.00     0.103 C 
ATOM    103  SG  CYS    11       6.384  21.355   5.147  1.00  0.00    -0.080 SA
ENDBRANCH  94 102
ENDBRANCH  92  94
ENDBRANCH  90  91
ENDBRANCH  89  90
ENDBRANCH  76  87
ENDBRANCH  74  76
ENDBRANCH  65  73
ENDBRANCH  63  65
ENDBRANCH  61  62
BRANCH  61 104
ATOM    104  CB  ASN     7       3.468   9.535   7.057  1.00  0.00     0.126 C 
BRANCH 104 105
ATOM    105  CG  ASN     7       2.339   9.145   6.084  1.00  0.00     0.276 C 
ATOM    106  ND2 ASN     7       1.196   9.771   6.247  1.00  0.00    -0.107 N 
ATOM    107  OD1 ASN     7       2.383   8.209   5.296  1.00  0.00    -0.269 OA
ENDBRANCH 104 105
ENDBRANCH  61 104
ENDBRANCH  59  61
ENDBRANCH   1  58
TORSDOF 42
ENDMDL
MODEL 3
REMARK VINA RESULT:      -4.2      4.409      8.449
REMARK WARNING: 32 MAX_TORS EXCEEDED!!!
REMARK  42 active torsions:
REMARK  status: ('A' for Active; 'I' for Inactive)
REMARK    1  A    between atoms: CA_2  and  CB_3 
REMARK    2  A    between atoms: CA_2  and  C_11 
REMARK    3  A    between atoms: CB_3  and  CG_4 
REMARK       I    between atoms: C_11  and  N_13 
REMARK    4  A    between atoms: N_13  and  CA_14 
REMARK    5  A    between atoms: CA_14  and  CB_15 
REMARK    6  A    between atoms: CA_14  and  C_19 
REMARK    7  A    between atoms: CB_15  and  CG_16 
REMARK       I    between atoms: C_19  and  N_21 
REMARK    8  A    between atoms: CA_22  and  C_26 
REMARK       I    between atoms: C_26  and  N_28 
REMARK    9  A    between atoms: N_28  and  CA_29 
REMARK   10  A    between atoms: CA_29  and  C_35 
REMARK   11  A    between atoms: CA_29  and  CB_30 
REMARK   12  A    between atoms: CB_30  and  CG_31 
REMARK   13  A    between atoms: CG_31  and  CD_32 
REMARK       I    between atoms: C_35  and  N_37 
REMARK   14  A    between atoms: N_37  and  CA_38 
REMARK   15  A    between atoms: CA_38  and  CB_39 
REMARK   16  A    between atoms: CA_38  and  C_47 
REMARK   17  A    between atoms: CB_39  and  CG_40 
REMARK       I    between atoms: C_47  and  N_49 
REMARK   18  A    between atoms: N_49  and  CA_50 
REMARK   19  A    between atoms: CA_50  and  CB_51 
REMARK   20  A    between atoms: CA_50  and  C_58 
REMARK   21  A    between atoms: CB_51  and  CG_52 
REMARK   22  A    between atoms: CG_52  and  CD_53 
REMARK   23  A    between atoms: CD_53  and  NE_54 
REMARK       I    between atoms: C_58  and  N_60 
REMARK   24  A    between atoms: N_60  and  CA_61 
REMARK   25  A    between atoms: CA_61  and  C_66 
REMARK   26  A    between atoms: CA_61  and  CB_62 
REMARK   27  A    between atoms: CB_62  and  CG_63 
REMARK       I    between atoms: C_66  and  N_68 
REMARK   28  A    between atoms: N_68  and  CA_69 
REMARK   29  A    between atoms: CA_69  and  CB_70 
REMARK   30  A    between atoms: CA_69  and  C_77 
REMARK   31  A    between atoms: CB_70  and  CG_71 
REMARK       I    between atoms: C_77  and  N_79 
REMARK   32  A    between atoms: N_79  and  CA_80 
REMARK   33  A    between atoms: CA_80  and  CB_81 
REMARK   34  A    between atoms: CA_80  and  C_91 
REMARK   35  A    between atoms: CB_81  and  CG_82 
REMARK       I    between atoms: C_91  and  N_93 
REMARK   36  A    between atoms: N_93  and  CA_94 
REMARK   37  A    between atoms: CA_94  and  C_95 
REMARK       I    between atoms: C_95  and  N_97 
REMARK   38  A    between atoms: N_97  and  CA_98 
REMARK   39  A    between atoms: CA_98  and  C_101 
REMARK   40  A    between atoms: CA_98  and  CB_99 
REMARK       I    between atoms: C_101  and  N_103 
REMARK   41  A    between atoms: N_103  and  CA_104 
REMARK   42  A    between atoms: CA_104  and  C_105 
ROOT
ATOM      1  CA  ARG     6       1.534   7.200   9.262  1.00  0.00     0.186 C 
ENDROOT
BRANCH   1   2
ATOM      2  N   ARG     6       0.257   6.774   8.643  1.00  0.00    -0.229 NA
ATOM      3  C   TYR     5      -0.875   7.478   8.774  1.00  0.00     0.275 C 
ATOM      4  O   TYR     5      -0.920   8.542   9.393  1.00  0.00    -0.268 OA
BRANCH   3   5
ATOM      5  CA  TYR     5      -2.112   6.964   8.020  1.00  0.00     0.191 C 
BRANCH   5   6
ATOM      6  N   TYR     5      -2.739   7.987   7.143  1.00  0.00    -0.228 NA
ATOM      7  C   GLU     4      -4.065   8.190   7.084  1.00  0.00     0.274 C 
ATOM      8  O   GLU     4      -4.851   7.647   7.851  1.00  0.00    -0.268 OA
BRANCH   7   9
ATOM      9  CA  GLU     4      -4.530   9.385   6.228  1.00  0.00     0.187 C 
BRANCH   9  10
ATOM     10  CB  GLU     4      -3.621   9.528   4.996  1.00  0.00     0.045 C 
BRANCH  10  11
ATOM     11  CG  GLU     4      -4.304   9.361   3.620  1.00  0.00     0.100 C 
BRANCH  11  12
ATOM     12  CD  GLU     4      -5.054   8.041   3.446  1.00  0.00     0.185 C 
ATOM     13  OE1 GLU     4      -6.312   8.088   3.431  1.00  0.00    -0.647 OA
ATOM     14  OE2 GLU     4      -4.453   7.005   3.795  1.00  0.00    -0.647 OA
ENDBRANCH  11  12
ENDBRANCH  10  11
ENDBRANCH   9  10
BRANCH   9  15
ATOM     15  N   GLU     4      -4.531  10.664   6.964  1.00  0.00    -0.229 NA
ATOM     16  C   PRO     3      -5.526  11.216   7.647  1.00  0.00     0.272 C 
ATOM     17  O   PRO     3      -6.485  10.576   8.082  1.00  0.00    -0.269 OA
BRANCH  16  18
ATOM     18  CA  PRO     3      -5.203  12.561   8.300  1.00  0.00     0.165 C 
ATOM     19  N   PRO     3      -6.287  13.564   8.227  1.00  0.00    -0.312 N 
ATOM     20  CD  PRO     3      -6.374  14.300   9.514  1.00  0.00     0.105 C 
ATOM     21  C   ASP     2      -6.968  13.854   7.103  1.00  0.00     0.257 C 
ATOM     22  CG  PRO     3      -5.137  13.838  10.299  1.00  0.00     0.027 C 
ATOM     23  CB  PRO     3      -4.889  12.422   9.788  1.00  0.00     0.034 C 
ATOM     24  O   ASP     2      -6.570  13.437   6.004  1.00  0.00    -0.270 OA
BRANCH  21  25
ATOM     25  CA  ASP     2      -8.023  14.983   7.123  1.00  0.00     0.195 C 
BRANCH  25  26
ATOM     26  CB  ASP     2      -8.405  15.545   8.517  1.00  0.00     0.132 C 
BRANCH  26  27
ATOM     27  CG  ASP     2      -9.109  16.907   8.373  1.00  0.00     0.188 C 
ATOM     28  OD2 ASP     2      -8.352  17.912   8.380  1.00  0.00    -0.647 OA
ATOM     29  OD1 ASP     2     -10.278  16.988   8.824  1.00  0.00    -0.647 OA
ENDBRANCH  26  27
ENDBRANCH  25  26
BRANCH  25  30
ATOM     30  N   ASP     2      -9.322  14.536   6.593  1.00  0.00    -0.228 NA
ATOM     31  C   TYR     1      -9.982  13.456   6.943  1.00  0.00     0.289 C 
ATOM     32  O   TYR     1      -9.730  12.675   7.866  1.00  0.00    -0.268 OA
BRANCH  31  33
ATOM     33  CA  TYR     1     -11.180  13.199   6.033  1.00  0.00     0.385 C 
ATOM     34  N   TYR     1     -11.552  14.479   5.406  1.00  0.00     0.626 N 
BRANCH  33  35
ATOM     35  CB  TYR     1     -10.757  12.148   5.010  1.00  0.00     0.075 C 
BRANCH  35  36
ATOM     36  CG  TYR     1     -11.597  10.864   5.085  1.00  0.00    -0.019 A 
ATOM     37  CD2 TYR     1     -11.356   9.898   6.050  1.00  0.00    -0.002 A 
ATOM     38  CE2 TYR     1     -12.212   8.816   6.182  1.00  0.00     0.027 A 
ATOM     39  CZ  TYR     1     -13.311   8.709   5.330  1.00  0.00     0.131 A 
ATOM     40  CE1 TYR     1     -13.522   9.655   4.342  1.00  0.00     0.027 A 
ATOM     41  OH  TYR     1     -14.257   7.775   5.556  1.00  0.00    -0.190 OA
ATOM     42  CD1 TYR     1     -12.666  10.737   4.210  1.00  0.00    -0.002 A 
ENDBRANCH  35  36
ENDBRANCH  33  35
ENDBRANCH  31  33
ENDBRANCH  25  30
ENDBRANCH  21  25
ENDBRANCH  16  18
ENDBRANCH   9  15
ENDBRANCH   7   9
ENDBRANCH   5   6
BRANCH   5  43
ATOM     43  CB  TYR     5      -1.773   5.705   7.204  1.00  0.00     0.060 C 
BRANCH  43  44
ATOM     44  CG  TYR     5      -2.297   4.421   7.869  1.00  0.00    -0.020 A 
ATOM     45  CD2 TYR     5      -3.509   4.419   8.546  1.00  0.00    -0.002 A 
ATOM     46  CE2 TYR     5      -3.978   3.251   9.138  1.00  0.00     0.027 A 
ATOM     47  CZ  TYR     5      -3.235   2.083   9.052  1.00  0.00     0.131 A 
ATOM     48  CE1 TYR     5      -2.029   2.072   8.361  1.00  0.00     0.027 A 
ATOM     49  OH  TYR     5      -3.613   0.984   9.740  1.00  0.00    -0.190 OA
ATOM     50  CD1 TYR     5      -1.557   3.247   7.776  1.00  0.00    -0.002 A 
ENDBRANCH  43  44
ENDBRANCH   5  43
ENDBRANCH   3   5
ENDBRANCH   1   2
BRANCH   1  51
ATOM     51  CB  ARG     6       2.347   6.031   9.810  1.00  0.00     0.036 C 
BRANCH  51  52
ATOM     52  CG  ARG     6       2.965   5.149   8.722  1.00  0.00     0.029 C 
BRANCH  52  53
ATOM     53  CD  ARG     6       3.683   3.958   9.349  1.00  0.00     0.145 C 
BRANCH  53  54
ATOM     54  NE  ARG     6       4.884   3.599   8.576  1.00  0.00    -0.083 NA
ATOM     55  CZ  ARG     6       6.125   4.076   8.794  1.00  0.00     0.782 C 
ATOM     56  NH2 ARG     6       7.130   3.748   7.979  1.00  0.00     0.063 N 
ATOM     57  NH1 ARG     6       6.346   4.948   9.772  1.00  0.00     0.063 N 
ENDBRANCH  53  54
ENDBRANCH  52  53
ENDBRANCH  51  52
ENDBRANCH   1  51
BRANCH   1  58
ATOM     58  C   ARG     6       2.444   7.944   8.276  1.00  0.00     0.274 C 
ATOM     59  N   ASN     7       3.120   8.973   8.780  1.00  0.00    -0.228 NA
ATOM     60  O   ARG     6       2.498   7.566   7.105  1.00  0.00    -0.268 OA
BRANCH  59  61
ATOM     61  CA  ASN     7       4.116   9.747   8.011  1.00  0.00     0.196 C 
BRANCH  61  62
ATOM     62  C   ASN     7       5.036  10.566   8.938  1.00  0.00     0.275 C 
ATOM     63  N   PHE     8       6.169  11.043   8.402  1.00  0.00    -0.228 NA
ATOM     64  O   ASN     7       4.531  11.051   9.932  1.00  0.00    -0.268 OA
BRANCH  63  65
ATOM     65  CA  PHE     8       7.136  11.921   9.105  1.00  0.00     0.191 C 
BRANCH  65  66
ATOM     66  CB  PHE     8       8.367  11.082   9.475  1.00  0.00     0.060 C 
BRANCH  66  67
ATOM     67  CG  PHE     8       8.617   9.876   8.549  1.00  0.00    -0.020 A 
ATOM     68  CD1 PHE     8       8.100   8.631   8.878  1.00  0.00    -0.004 A 
ATOM     69  CE1 PHE     8       8.411   7.520   8.094  1.00  0.00    -0.000 A 
ATOM     70  CZ  PHE     8       9.223   7.670   6.982  1.00  0.00    -0.000 A 
ATOM     71  CE2 PHE     8       9.731   8.919   6.642  1.00  0.00    -0.000 A 
ATOM     72  CD2 PHE     8       9.420  10.030   7.426  1.00  0.00    -0.004 A 
ENDBRANCH  66  67
ENDBRANCH  65  66
BRANCH  65  73
ATOM     73  C   PHE     8       7.530  13.204   8.339  1.00  0.00     0.275 C 
ATOM     74  N   TRP     9       6.626  13.685   7.484  1.00  0.00    -0.228 NA
ATOM     75  O   PHE     8       8.696  13.605   8.331  1.00  0.00    -0.268 OA
BRANCH  74  76
ATOM     76  CA  TRP     9       6.820  14.975   6.775  1.00  0.00     0.191 C 
BRANCH  76  77
ATOM     77  CB  TRP     9       7.070  14.689   5.285  1.00  0.00     0.062 C 
BRANCH  77  78
ATOM     78  CG  TRP     9       8.518  14.932   4.861  1.00  0.00     0.001 A 
ATOM     79  CD1 TRP     9       9.006  16.065   4.364  1.00  0.00     0.095 A 
ATOM     80  NE1 TRP     9      10.203  15.843   3.835  1.00  0.00    -0.244 NA
ATOM     81  CE2 TRP     9      10.527  14.568   3.992  1.00  0.00     0.081 A 
ATOM     82  CD2 TRP     9       9.470  13.943   4.633  1.00  0.00     0.015 A 
ATOM     83  CZ2 TRP     9      11.609  13.806   3.552  1.00  0.00     0.019 A 
ATOM     84  CE3 TRP     9       9.468  12.570   4.828  1.00  0.00     0.001 A 
ATOM     85  CZ3 TRP     9      10.540  11.806   4.378  1.00  0.00     0.000 A 
ATOM     86  CH2 TRP     9      11.618  12.434   3.757  1.00  0.00     0.002 A 
ENDBRANCH  77  78
ENDBRANCH  76  77
BRANCH  76  87
ATOM     87  C   TRP     9       5.677  15.995   6.976  1.00  0.00     0.275 C 
ATOM     88  O   TRP     9       5.387  16.798   6.094  1.00  0.00    -0.268 OA
ATOM     89  N   GLY    10       4.976  15.879   8.103  1.00  0.00    -0.226 NA
BRANCH  89  90
ATOM     90  CA  GLY    10       3.813  16.738   8.458  1.00  0.00     0.218 C 
BRANCH  90  91
ATOM     91  C   GLY    10       4.138  18.106   9.079  1.00  0.00     0.277 C 
ATOM     92  N   CYS    11       4.032  19.141   8.247  1.00  0.00    -0.228 NA
ATOM     93  O   GLY    10       4.625  18.182  10.201  1.00  0.00    -0.268 OA
BRANCH  92  94
ATOM     94  CA  CYS    11       4.262  20.565   8.577  1.00  0.00     0.198 C 
BRANCH  94  95
ATOM     95  C   CYS    11       5.743  20.888   8.299  1.00  0.00     0.275 C 
ATOM     96  O   CYS    11       6.355  21.604   9.084  1.00  0.00    -0.268 OA
ATOM     97  N   GLY    12       6.205  20.524   7.111  1.00  0.00    -0.225 NA
BRANCH  97  98
ATOM     98  CA  GLY    12       7.589  20.771   6.679  1.00  0.00     0.226 C 
BRANCH  98  99
ATOM     99  C   GLY    12       8.074  19.528   5.897  1.00  0.00     0.211 C 
ATOM    100  O1  GLY    12       9.077  18.927   6.359  1.00  0.00    -0.646 OA
ATOM    101  O2  GLY    12       7.425  19.186   4.891  1.00  0.00    -0.646 OA
ENDBRANCH  98  99
ENDBRANCH  97  98
ENDBRANCH  94  95
BRANCH  94 102
ATOM    102  CB  CYS    11       4.064  20.797  10.073  1.00  0.00     0.103 C 
ATOM    103  SG  CYS    11       2.960  22.186  10.537  1.00  0.00    -0.080 SA
ENDBRANCH  94 102
ENDBRANCH  92  94
ENDBRANCH  90  91
ENDBRANCH  89  90
ENDBRANCH  76  87
ENDBRANCH  74  76
ENDBRANCH  65  73
ENDBRANCH  63  65
ENDBRANCH  61  62
BRANCH  61 104
ATOM    104  CB  ASN     7       3.439  10.653   6.975  1.00  0.00     0.126 C 
BRANCH 104 105
ATOM    105  CG  ASN     7       2.173  11.374   7.475  1.00  0.00     0.276 C 
ATOM    106  ND2 ASN     7       1.037  10.976   6.950  1.00  0.00    -0.107 N 
ATOM    107  OD1 ASN     7       2.167  12.369   8.189  1.00  0.00    -0.269 OA
ENDBRANCH 104 105
ENDBRANCH  61 104
ENDBRANCH  59  61
ENDBRANCH   1  58
TORSDOF 42
ENDMDL
MODEL 4
REMARK VINA RESULT:      -4.1     24.483     32.483
REMARK WARNING: 32 MAX_TORS EXCEEDED!!!
REMARK  42 active torsions:
REMARK  status: ('A' for Active; 'I' for Inactive)
REMARK    1  A    between atoms: CA_2  and  CB_3 
REMARK    2  A    between atoms: CA_2  and  C_11 
REMARK    3  A    between atoms: CB_3  and  CG_4 
REMARK       I    between atoms: C_11  and  N_13 
REMARK    4  A    between atoms: N_13  and  CA_14 
REMARK    5  A    between atoms: CA_14  and  CB_15 
REMARK    6  A    between atoms: CA_14  and  C_19 
REMARK    7  A    between atoms: CB_15  and  CG_16 
REMARK       I    between atoms: C_19  and  N_21 
REMARK    8  A    between atoms: CA_22  and  C_26 
REMARK       I    between atoms: C_26  and  N_28 
REMARK    9  A    between atoms: N_28  and  CA_29 
REMARK   10  A    between atoms: CA_29  and  C_35 
REMARK   11  A    between atoms: CA_29  and  CB_30 
REMARK   12  A    between atoms: CB_30  and  CG_31 
REMARK   13  A    between atoms: CG_31  and  CD_32 
REMARK       I    between atoms: C_35  and  N_37 
REMARK   14  A    between atoms: N_37  and  CA_38 
REMARK   15  A    between atoms: CA_38  and  CB_39 
REMARK   16  A    between atoms: CA_38  and  C_47 
REMARK   17  A    between atoms: CB_39  and  CG_40 
REMARK       I    between atoms: C_47  and  N_49 
REMARK   18  A    between atoms: N_49  and  CA_50 
REMARK   19  A    between atoms: CA_50  and  CB_51 
REMARK   20  A    between atoms: CA_50  and  C_58 
REMARK   21  A    between atoms: CB_51  and  CG_52 
REMARK   22  A    between atoms: CG_52  and  CD_53 
REMARK   23  A    between atoms: CD_53  and  NE_54 
REMARK       I    between atoms: C_58  and  N_60 
REMARK   24  A    between atoms: N_60  and  CA_61 
REMARK   25  A    between atoms: CA_61  and  C_66 
REMARK   26  A    between atoms: CA_61  and  CB_62 
REMARK   27  A    between atoms: CB_62  and  CG_63 
REMARK       I    between atoms: C_66  and  N_68 
REMARK   28  A    between atoms: N_68  and  CA_69 
REMARK   29  A    between atoms: CA_69  and  CB_70 
REMARK   30  A    between atoms: CA_69  and  C_77 
REMARK   31  A    between atoms: CB_70  and  CG_71 
REMARK       I    between atoms: C_77  and  N_79 
REMARK   32  A    between atoms: N_79  and  CA_80 
REMARK   33  A    between atoms: CA_80  and  CB_81 
REMARK   34  A    between atoms: CA_80  and  C_91 
REMARK   35  A    between atoms: CB_81  and  CG_82 
REMARK       I    between atoms: C_91  and  N_93 
REMARK   36  A    between atoms: N_93  and  CA_94 
REMARK   37  A    between atoms: CA_94  and  C_95 
REMARK       I    between atoms: C_95  and  N_97 
REMARK   38  A    between atoms: N_97  and  CA_98 
REMARK   39  A    between atoms: CA_98  and  C_101 
REMARK   40  A    between atoms: CA_98  and  CB_99 
REMARK       I    between atoms: C_101  and  N_103 
REMARK   41  A    between atoms: N_103  and  CA_104 
REMARK   42  A    between atoms: CA_104  and  C_105 
ROOT
ATOM      1  CA  ARG     6      12.110 -25.812   6.041  1.00  0.00     0.186 C 
ENDROOT
BRANCH   1   2
ATOM      2  N   ARG     6      11.005 -26.323   6.885  1.00  0.00    -0.229 NA
ATOM      3  C   TYR     5      10.997 -27.568   7.381  1.00  0.00     0.275 C 
ATOM      4  O   TYR     5      11.923 -28.358   7.192  1.00  0.00    -0.268 OA
BRANCH   3   5
ATOM      5  CA  TYR     5       9.827 -27.947   8.304  1.00  0.00     0.191 C 
BRANCH   5   6
ATOM      6  N   TYR     5       8.496 -27.808   7.660  1.00  0.00    -0.228 NA
ATOM      7  C   GLU     4       7.615 -26.851   7.995  1.00  0.00     0.274 C 
ATOM      8  O   GLU     4       7.894 -25.934   8.757  1.00  0.00    -0.268 OA
BRANCH   7   9
ATOM      9  CA  GLU     4       6.342 -26.768   7.128  1.00  0.00     0.187 C 
BRANCH   9  10
ATOM     10  CB  GLU     4       6.717 -26.873   5.641  1.00  0.00     0.045 C 
BRANCH  10  11
ATOM     11  CG  GLU     4       6.800 -28.300   5.056  1.00  0.00     0.100 C 
BRANCH  11  12
ATOM     12  CD  GLU     4       5.448 -28.907   4.684  1.00  0.00     0.185 C 
ATOM     13  OE1 GLU     4       4.432 -28.173   4.804  1.00  0.00    -0.647 OA
ATOM     14  OE2 GLU     4       5.354 -30.149   4.748  1.00  0.00    -0.647 OA
ENDBRANCH  11  12
ENDBRANCH  10  11
ENDBRANCH   9  10
BRANCH   9  15
ATOM     15  N   GLU     4       5.576 -25.523   7.334  1.00  0.00    -0.229 NA
ATOM     16  C   PRO     3       4.611 -25.291   8.216  1.00  0.00     0.272 C 
ATOM     17  O   PRO     3       4.459 -25.955   9.243  1.00  0.00    -0.269 OA
BRANCH  16  18
ATOM     18  CA  PRO     3       4.012 -23.884   8.173  1.00  0.00     0.165 C 
ATOM     19  N   PRO     3       2.577 -23.809   8.520  1.00  0.00    -0.312 N 
ATOM     20  CD  PRO     3       2.328 -22.608   9.358  1.00  0.00     0.105 C 
ATOM     21  C   ASP     2       1.637 -24.625   8.010  1.00  0.00     0.257 C 
ATOM     22  CG  PRO     3       3.656 -21.837   9.320  1.00  0.00     0.027 C 
ATOM     23  CB  PRO     3       4.706 -22.930   9.142  1.00  0.00     0.034 C 
ATOM     24  O   ASP     2       1.901 -25.359   7.045  1.00  0.00    -0.270 OA
BRANCH  21  25
ATOM     25  CA  ASP     2       0.153 -24.400   8.377  1.00  0.00     0.195 C 
BRANCH  25  26
ATOM     26  CB  ASP     2      -0.867 -25.400   7.774  1.00  0.00     0.132 C 
BRANCH  26  27
ATOM     27  CG  ASP     2      -1.264 -26.459   8.818  1.00  0.00     0.188 C 
ATOM     28  OD2 ASP     2      -1.443 -26.028   9.986  1.00  0.00    -0.647 OA
ATOM     29  OD1 ASP     2      -0.838 -27.626   8.629  1.00  0.00    -0.647 OA
ENDBRANCH  26  27
ENDBRANCH  25  26
BRANCH  25  30
ATOM     30  N   ASP     2      -0.347 -23.103   7.891  1.00  0.00    -0.228 NA
ATOM     31  C   TYR     1      -1.416 -22.466   8.310  1.00  0.00     0.289 C 
ATOM     32  O   TYR     1      -2.137 -22.743   9.275  1.00  0.00    -0.268 OA
BRANCH  31  33
ATOM     33  CA  TYR     1      -1.746 -21.264   7.432  1.00  0.00     0.385 C 
ATOM     34  N   TYR     1      -1.127 -20.075   8.042  1.00  0.00     0.626 N 
BRANCH  33  35
ATOM     35  CB  TYR     1      -1.200 -21.556   6.036  1.00  0.00     0.075 C 
BRANCH  35  36
ATOM     36  CG  TYR     1      -2.149 -22.415   5.187  1.00  0.00    -0.019 A 
ATOM     37  CD2 TYR     1      -1.697 -23.536   4.508  1.00  0.00    -0.002 A 
ATOM     38  CE2 TYR     1      -2.596 -24.370   3.861  1.00  0.00     0.027 A 
ATOM     39  CZ  TYR     1      -3.956 -24.062   3.897  1.00  0.00     0.131 A 
ATOM     40  CE1 TYR     1      -4.396 -22.920   4.542  1.00  0.00     0.027 A 
ATOM     41  OH  TYR     1      -4.864 -24.948   3.441  1.00  0.00    -0.190 OA
ATOM     42  CD1 TYR     1      -3.496 -22.086   5.189  1.00  0.00    -0.002 A 
ENDBRANCH  35  36
ENDBRANCH  33  35
ENDBRANCH  31  33
ENDBRANCH  25  30
ENDBRANCH  21  25
ENDBRANCH  16  18
ENDBRANCH   9  15
ENDBRANCH   7   9
ENDBRANCH   5   6
BRANCH   5  43
ATOM     43  CB  TYR     5      10.001 -29.373   8.853  1.00  0.00     0.060 C 
BRANCH  43  44
ATOM     44  CG  TYR     5       9.006 -30.365   8.227  1.00  0.00    -0.020 A 
ATOM     45  CD2 TYR     5       7.853 -30.735   8.907  1.00  0.00    -0.002 A 
ATOM     46  CE2 TYR     5       6.955 -31.627   8.329  1.00  0.00     0.027 A 
ATOM     47  CZ  TYR     5       7.211 -32.150   7.071  1.00  0.00     0.131 A 
ATOM     48  CE1 TYR     5       8.354 -31.771   6.376  1.00  0.00     0.027 A 
ATOM     49  OH  TYR     5       6.419 -33.119   6.564  1.00  0.00    -0.190 OA
ATOM     50  CD1 TYR     5       9.256 -30.883   6.961  1.00  0.00    -0.002 A 
ENDBRANCH  43  44
ENDBRANCH   5  43
ENDBRANCH   3   5
ENDBRANCH   1   2
BRANCH   1  51
ATOM     51  CB  ARG     6      11.694 -25.589   4.591  1.00  0.00     0.036 C 
BRANCH  51  52
ATOM     52  CG  ARG     6      12.665 -26.192   3.573  1.00  0.00     0.029 C 
BRANCH  52  53
ATOM     53  CD  ARG     6      12.658 -27.715   3.671  1.00  0.00     0.145 C 
BRANCH  53  54
ATOM     54  NE  ARG     6      11.312 -28.255   3.418  1.00  0.00    -0.083 NA
ATOM     55  CZ  ARG     6      10.885 -29.484   3.765  1.00  0.00     0.782 C 
ATOM     56  NH2 ARG     6       9.668 -29.903   3.413  1.00  0.00     0.063 N 
ATOM     57  NH1 ARG     6      11.702 -30.327   4.386  1.00  0.00     0.063 N 
ENDBRANCH  53  54
ENDBRANCH  52  53
ENDBRANCH  51  52
ENDBRANCH   1  51
BRANCH   1  58
ATOM     58  C   ARG     6      12.665 -24.475   6.549  1.00  0.00     0.274 C 
ATOM     59  N   ASN     7      12.075 -23.979   7.632  1.00  0.00    -0.228 NA
ATOM     60  O   ARG     6      13.598 -23.943   5.944  1.00  0.00    -0.268 OA
BRANCH  59  61
ATOM     61  CA  ASN     7      12.534 -22.756   8.322  1.00  0.00     0.196 C 
BRANCH  61  62
ATOM     62  C   ASN     7      12.919 -21.650   7.320  1.00  0.00     0.275 C 
ATOM     63  N   PHE     8      11.920 -21.091   6.620  1.00  0.00    -0.228 NA
ATOM     64  O   ASN     7      13.986 -21.093   7.492  1.00  0.00    -0.268 OA
BRANCH  63  65
ATOM     65  CA  PHE     8      12.078 -19.958   5.675  1.00  0.00     0.191 C 
BRANCH  65  66
ATOM     66  CB  PHE     8      12.609 -20.512   4.345  1.00  0.00     0.060 C 
BRANCH  66  67
ATOM     67  CG  PHE     8      14.077 -20.153   4.048  1.00  0.00    -0.020 A 
ATOM     68  CD1 PHE     8      15.018 -21.162   3.889  1.00  0.00    -0.004 A 
ATOM     69  CE1 PHE     8      16.364 -20.836   3.722  1.00  0.00    -0.000 A 
ATOM     70  CZ  PHE     8      16.752 -19.506   3.701  1.00  0.00    -0.000 A 
ATOM     71  CE2 PHE     8      15.809 -18.494   3.846  1.00  0.00    -0.000 A 
ATOM     72  CD2 PHE     8      14.463 -18.820   4.013  1.00  0.00    -0.004 A 
ENDBRANCH  66  67
ENDBRANCH  65  66
BRANCH  65  73
ATOM     73  C   PHE     8      10.810 -19.099   5.469  1.00  0.00     0.275 C 
ATOM     74  N   TRP     9      10.832 -17.873   5.996  1.00  0.00    -0.228 NA
ATOM     75  O   PHE     8       9.759 -19.606   5.070  1.00  0.00    -0.268 OA
BRANCH  74  76
ATOM     76  CA  TRP     9       9.736 -16.899   5.770  1.00  0.00     0.191 C 
BRANCH  76  77
ATOM     77  CB  TRP     9       9.210 -16.420   7.133  1.00  0.00     0.062 C 
BRANCH  77  78
ATOM     78  CG  TRP     9       7.953 -17.161   7.588  1.00  0.00     0.001 A 
ATOM     79  CD1 TRP     9       7.901 -18.419   8.016  1.00  0.00     0.095 A 
ATOM     80  NE1 TRP     9       6.640 -18.831   8.045  1.00  0.00    -0.244 NA
ATOM     81  CE2 TRP     9       5.844 -17.846   7.657  1.00  0.00     0.081 A 
ATOM     82  CD2 TRP     9       6.645 -16.760   7.340  1.00  0.00     0.015 A 
ATOM     83  CZ2 TRP     9       4.470 -17.774   7.426  1.00  0.00     0.019 A 
ATOM     84  CE3 TRP     9       6.099 -15.612   6.785  1.00  0.00     0.001 A 
ATOM     85  CZ3 TRP     9       4.731 -15.544   6.542  1.00  0.00     0.000 A 
ATOM     86  CH2 TRP     9       3.918 -16.623   6.883  1.00  0.00     0.002 A 
ENDBRANCH  77  78
ENDBRANCH  76  77
BRANCH  76  87
ATOM     87  C   TRP     9      10.111 -15.712   4.855  1.00  0.00     0.275 C 
ATOM     88  O   TRP     9       9.913 -15.762   3.644  1.00  0.00    -0.268 OA
ATOM     89  N   GLY    10      10.560 -14.617   5.466  1.00  0.00    -0.226 NA
BRANCH  89  90
ATOM     90  CA  GLY    10      10.931 -13.357   4.764  1.00  0.00     0.218 C 
BRANCH  90  91
ATOM     91  C   GLY    10      12.403 -12.925   4.872  1.00  0.00     0.277 C 
ATOM     92  N   CYS    11      12.837 -12.709   6.113  1.00  0.00    -0.228 NA
ATOM     93  O   GLY    10      13.044 -12.641   3.867  1.00  0.00    -0.268 OA
BRANCH  92  94
ATOM     94  CA  CYS    11      14.205 -12.309   6.512  1.00  0.00     0.198 C 
BRANCH  94  95
ATOM     95  C   CYS    11      14.659 -13.234   7.657  1.00  0.00     0.275 C 
ATOM     96  O   CYS    11      15.410 -12.791   8.519  1.00  0.00    -0.268 OA
ATOM     97  N   GLY    12      14.360 -14.518   7.522  1.00  0.00    -0.225 NA
BRANCH  97  98
ATOM     98  CA  GLY    12      14.733 -15.537   8.516  1.00  0.00     0.226 C 
BRANCH  98  99
ATOM     99  C   GLY    12      13.431 -16.151   9.082  1.00  0.00     0.211 C 
ATOM    100  O1  GLY    12      13.522 -17.301   9.582  1.00  0.00    -0.646 OA
ATOM    101  O2  GLY    12      12.397 -15.460   9.038  1.00  0.00    -0.646 OA
ENDBRANCH  98  99
ENDBRANCH  97  98
ENDBRANCH  94  95
BRANCH  94 102
ATOM    102  CB  CYS    11      14.190 -10.900   7.101  1.00  0.00     0.103 C 
ATOM    103  SG  CYS    11      13.540  -9.575   6.011  1.00  0.00    -0.080 SA
ENDBRANCH  94 102
ENDBRANCH  92  94
ENDBRANCH  90  91
ENDBRANCH  89  90
ENDBRANCH  76  87
ENDBRANCH  74  76
ENDBRANCH  65  73
ENDBRANCH  63  65
ENDBRANCH  61  62
BRANCH  61 104
ATOM    104  CB  ASN     7      13.698 -23.057   9.275  1.00  0.00     0.126 C 
BRANCH 104 105
ATOM    105  CG  ASN     7      13.798 -24.525   9.730  1.00  0.00     0.276 C 
ATOM    106  ND2 ASN     7      14.791 -25.219   9.225  1.00  0.00    -0.107 N 
ATOM    107  OD1 ASN     7      12.950 -25.116  10.388  1.00  0.00    -0.269 OA
ENDBRANCH 104 105
ENDBRANCH  61 104
ENDBRANCH  59  61
ENDBRANCH   1  58
TORSDOF 42
ENDMDL
MODEL 5
REMARK VINA RESULT:      -4.0      3.356      5.998
REMARK WARNING: 32 MAX_TORS EXCEEDED!!!
REMARK  42 active torsions:
REMARK  status: ('A' for Active; 'I' for Inactive)
REMARK    1  A    between atoms: CA_2  and  CB_3 
REMARK    2  A    between atoms: CA_2  and  C_11 
REMARK    3  A    between atoms: CB_3  and  CG_4 
REMARK       I    between atoms: C_11  and  N_13 
REMARK    4  A    between atoms: N_13  and  CA_14 
REMARK    5  A    between atoms: CA_14  and  CB_15 
REMARK    6  A    between atoms: CA_14  and  C_19 
REMARK    7  A    between atoms: CB_15  and  CG_16 
REMARK       I    between atoms: C_19  and  N_21 
REMARK    8  A    between atoms: CA_22  and  C_26 
REMARK       I    between atoms: C_26  and  N_28 
REMARK    9  A    between atoms: N_28  and  CA_29 
REMARK   10  A    between atoms: CA_29  and  C_35 
REMARK   11  A    between atoms: CA_29  and  CB_30 
REMARK   12  A    between atoms: CB_30  and  CG_31 
REMARK   13  A    between atoms: CG_31  and  CD_32 
REMARK       I    between atoms: C_35  and  N_37 
REMARK   14  A    between atoms: N_37  and  CA_38 
REMARK   15  A    between atoms: CA_38  and  CB_39 
REMARK   16  A    between atoms: CA_38  and  C_47 
REMARK   17  A    between atoms: CB_39  and  CG_40 
REMARK       I    between atoms: C_47  and  N_49 
REMARK   18  A    between atoms: N_49  and  CA_50 
REMARK   19  A    between atoms: CA_50  and  CB_51 
REMARK   20  A    between atoms: CA_50  and  C_58 
REMARK   21  A    between atoms: CB_51  and  CG_52 
REMARK   22  A    between atoms: CG_52  and  CD_53 
REMARK   23  A    between atoms: CD_53  and  NE_54 
REMARK       I    between atoms: C_58  and  N_60 
REMARK   24  A    between atoms: N_60  and  CA_61 
REMARK   25  A    between atoms: CA_61  and  C_66 
REMARK   26  A    between atoms: CA_61  and  CB_62 
REMARK   27  A    between atoms: CB_62  and  CG_63 
REMARK       I    between atoms: C_66  and  N_68 
REMARK   28  A    between atoms: N_68  and  CA_69 
REMARK   29  A    between atoms: CA_69  and  CB_70 
REMARK   30  A    between atoms: CA_69  and  C_77 
REMARK   31  A    between atoms: CB_70  and  CG_71 
REMARK       I    between atoms: C_77  and  N_79 
REMARK   32  A    between atoms: N_79  and  CA_80 
REMARK   33  A    between atoms: CA_80  and  CB_81 
REMARK   34  A    between atoms: CA_80  and  C_91 
REMARK   35  A    between atoms: CB_81  and  CG_82 
REMARK       I    between atoms: C_91  and  N_93 
REMARK   36  A    between atoms: N_93  and  CA_94 
REMARK   37  A    between atoms: CA_94  and  C_95 
REMARK       I    between atoms: C_95  and  N_97 
REMARK   38  A    between atoms: N_97  and  CA_98 
REMARK   39  A    between atoms: CA_98  and  C_101 
REMARK   40  A    between atoms: CA_98  and  CB_99 
REMARK       I    between atoms: C_101  and  N_103 
REMARK   41  A    between atoms: N_103  and  CA_104 
REMARK   42  A    between atoms: CA_104  and  C_105 
ROOT
ATOM      1  CA  ARG     6       0.607   6.738   8.659  1.00  0.00     0.186 C 
ENDROOT
BRANCH   1   2
ATOM      2  N   ARG     6      -0.621   7.373   8.127  1.00  0.00    -0.229 NA
ATOM      3  C   TYR     5      -1.487   8.030   8.910  1.00  0.00     0.275 C 
ATOM      4  O   TYR     5      -1.303   8.175  10.119  1.00  0.00    -0.268 OA
BRANCH   3   5
ATOM      5  CA  TYR     5      -2.683   8.705   8.219  1.00  0.00     0.191 C 
BRANCH   5   6
ATOM      6  N   TYR     5      -2.449  10.136   7.894  1.00  0.00    -0.228 NA
ATOM      7  C   GLU     4      -2.594  11.126   8.790  1.00  0.00     0.274 C 
ATOM      8  O   GLU     4      -2.793  10.916   9.980  1.00  0.00    -0.268 OA
BRANCH   7   9
ATOM      9  CA  GLU     4      -2.174  12.533   8.318  1.00  0.00     0.187 C 
BRANCH   9  10
ATOM     10  CB  GLU     4      -1.004  13.043   9.176  1.00  0.00     0.045 C 
BRANCH  10  11
ATOM     11  CG  GLU     4       0.189  13.656   8.410  1.00  0.00     0.100 C 
BRANCH  11  12
ATOM     12  CD  GLU     4       0.250  15.182   8.459  1.00  0.00     0.185 C 
ATOM     13  OE1 GLU     4       0.622  15.780   7.415  1.00  0.00    -0.647 OA
ATOM     14  OE2 GLU     4       0.397  15.702   9.584  1.00  0.00    -0.647 OA
ENDBRANCH  11  12
ENDBRANCH  10  11
ENDBRANCH   9  10
BRANCH   9  15
ATOM     15  N   GLU     4      -3.269  13.520   8.381  1.00  0.00    -0.229 NA
ATOM     16  C   PRO     3      -4.577  13.294   8.374  1.00  0.00     0.272 C 
ATOM     17  O   PRO     3      -5.079  12.213   8.687  1.00  0.00    -0.269 OA
BRANCH  16  18
ATOM     18  CA  PRO     3      -5.456  14.544   8.450  1.00  0.00     0.165 C 
ATOM     19  N   PRO     3      -6.862  14.341   8.038  1.00  0.00    -0.312 N 
ATOM     20  CD  PRO     3      -7.762  15.095   8.948  1.00  0.00     0.105 C 
ATOM     21  C   ASP     2      -7.231  13.699   6.915  1.00  0.00     0.257 C 
ATOM     22  CG  PRO     3      -6.811  15.945   9.804  1.00  0.00     0.027 C 
ATOM     23  CB  PRO     3      -5.534  15.112   9.865  1.00  0.00     0.034 C 
ATOM     24  O   ASP     2      -6.390  13.423   6.046  1.00  0.00    -0.270 OA
BRANCH  21  25
ATOM     25  CA  ASP     2      -8.728  13.621   6.540  1.00  0.00     0.195 C 
BRANCH  25  26
ATOM     26  CB  ASP     2      -9.121  12.551   5.488  1.00  0.00     0.132 C 
BRANCH  26  27
ATOM     27  CG  ASP     2      -9.955  11.434   6.143  1.00  0.00     0.188 C 
ATOM     28  OD2 ASP     2      -9.570  11.068   7.283  1.00  0.00    -0.647 OA
ATOM     29  OD1 ASP     2     -10.513  10.619   5.368  1.00  0.00    -0.647 OA
ENDBRANCH  26  27
ENDBRANCH  25  26
BRANCH  25  30
ATOM     30  N   ASP     2      -9.209  14.868   5.921  1.00  0.00    -0.228 NA
ATOM     31  C   TYR     1      -8.866  15.344   4.746  1.00  0.00     0.289 C 
ATOM     32  O   TYR     1      -8.189  14.795   3.871  1.00  0.00    -0.268 OA
BRANCH  31  33
ATOM     33  CA  TYR     1      -9.392  16.759   4.528  1.00  0.00     0.385 C 
ATOM     34  N   TYR     1     -10.809  16.659   4.142  1.00  0.00     0.626 N 
BRANCH  33  35
ATOM     35  CB  TYR     1      -9.194  17.525   5.835  1.00  0.00     0.075 C 
BRANCH  35  36
ATOM     36  CG  TYR     1      -7.834  18.234   5.916  1.00  0.00    -0.019 A 
ATOM     37  CD2 TYR     1      -6.741  17.633   6.520  1.00  0.00    -0.002 A 
ATOM     38  CE2 TYR     1      -5.493  18.235   6.461  1.00  0.00     0.027 A 
ATOM     39  CZ  TYR     1      -5.356  19.452   5.794  1.00  0.00     0.131 A 
ATOM     40  CE1 TYR     1      -6.459  20.066   5.229  1.00  0.00     0.027 A 
ATOM     41  OH  TYR     1      -4.130  19.963   5.560  1.00  0.00    -0.190 OA
ATOM     42  CD1 TYR     1      -7.707  19.464   5.288  1.00  0.00    -0.002 A 
ENDBRANCH  35  36
ENDBRANCH  33  35
ENDBRANCH  31  33
ENDBRANCH  25  30
ENDBRANCH  21  25
ENDBRANCH  16  18
ENDBRANCH   9  15
ENDBRANCH   7   9
ENDBRANCH   5   6
BRANCH   5  43
ATOM     43  CB  TYR     5      -3.092   7.936   6.952  1.00  0.00     0.060 C 
BRANCH  43  44
ATOM     44  CG  TYR     5      -4.051   8.744   6.062  1.00  0.00    -0.020 A 
ATOM     45  CD2 TYR     5      -3.688   9.095   4.768  1.00  0.00    -0.002 A 
ATOM     46  CE2 TYR     5      -4.565   9.820   3.968  1.00  0.00     0.027 A 
ATOM     47  CZ  TYR     5      -5.805  10.195   4.461  1.00  0.00     0.131 A 
ATOM     48  CE1 TYR     5      -6.183   9.833   5.750  1.00  0.00     0.027 A 
ATOM     49  OH  TYR     5      -6.604  11.016   3.744  1.00  0.00    -0.190 OA
ATOM     50  CD1 TYR     5      -5.298   9.113   6.553  1.00  0.00    -0.002 A 
ENDBRANCH  43  44
ENDBRANCH   5  43
ENDBRANCH   3   5
ENDBRANCH   1   2
BRANCH   1  51
ATOM     51  CB  ARG     6       0.579   5.216   8.563  1.00  0.00     0.036 C 
BRANCH  51  52
ATOM     52  CG  ARG     6      -0.733   4.660   8.003  1.00  0.00     0.029 C 
BRANCH  52  53
ATOM     53  CD  ARG     6      -0.860   3.173   8.324  1.00  0.00     0.145 C 
BRANCH  53  54
ATOM     54  NE  ARG     6      -2.095   2.613   7.752  1.00  0.00    -0.083 NA
ATOM     55  CZ  ARG     6      -3.243   2.406   8.424  1.00  0.00     0.782 C 
ATOM     56  NH2 ARG     6      -4.280   1.813   7.828  1.00  0.00     0.063 N 
ATOM     57  NH1 ARG     6      -3.330   2.710   9.714  1.00  0.00     0.063 N 
ENDBRANCH  53  54
ENDBRANCH  52  53
ENDBRANCH  51  52
ENDBRANCH   1  51
BRANCH   1  58
ATOM     58  C   ARG     6       1.872   7.201   7.925  1.00  0.00     0.274 C 
ATOM     59  N   ASN     7       2.530   8.210   8.490  1.00  0.00    -0.228 NA
ATOM     60  O   ARG     6       2.202   6.637   6.881  1.00  0.00    -0.268 OA
BRANCH  59  61
ATOM     61  CA  ASN     7       3.819   8.726   7.984  1.00  0.00     0.196 C 
BRANCH  61  62
ATOM     62  C   ASN     7       4.907   8.701   9.075  1.00  0.00     0.275 C 
ATOM     63  N   PHE     8       6.170   8.503   8.668  1.00  0.00    -0.228 NA
ATOM     64  O   ASN     7       4.640   9.229  10.137  1.00  0.00    -0.268 OA
BRANCH  63  65
ATOM     65  CA  PHE     8       7.361   8.531   9.552  1.00  0.00     0.191 C 
BRANCH  65  66
ATOM     66  CB  PHE     8       7.566   7.122  10.127  1.00  0.00     0.060 C 
BRANCH  66  67
ATOM     67  CG  PHE     8       8.240   6.132   9.158  1.00  0.00    -0.020 A 
ATOM     68  CD1 PHE     8       7.550   5.675   8.044  1.00  0.00    -0.004 A 
ATOM     69  CE1 PHE     8       8.121   4.702   7.224  1.00  0.00    -0.000 A 
ATOM     70  CZ  PHE     8       9.382   4.208   7.519  1.00  0.00    -0.000 A 
ATOM     71  CE2 PHE     8      10.080   4.674   8.628  1.00  0.00    -0.000 A 
ATOM     72  CD2 PHE     8       9.509   5.647   9.448  1.00  0.00    -0.004 A 
ENDBRANCH  66  67
ENDBRANCH  65  66
BRANCH  65  73
ATOM     73  C   PHE     8       8.650   9.073   8.895  1.00  0.00     0.275 C 
ATOM     74  N   TRP     9       8.676   9.085   7.561  1.00  0.00    -0.228 NA
ATOM     75  O   PHE     8       9.677   9.239   9.557  1.00  0.00    -0.268 OA
BRANCH  74  76
ATOM     76  CA  TRP     9       9.796   9.691   6.800  1.00  0.00     0.191 C 
BRANCH  76  77
ATOM     77  CB  TRP     9      10.028  11.122   7.315  1.00  0.00     0.062 C 
BRANCH  77  78
ATOM     78  CG  TRP     9       9.795  12.190   6.247  1.00  0.00     0.001 A 
ATOM     79  CD1 TRP     9      10.733  12.770   5.505  1.00  0.00     0.095 A 
ATOM     80  NE1 TRP     9      10.230  13.842   4.905  1.00  0.00    -0.244 NA
ATOM     81  CE2 TRP     9       8.952  13.972   5.227  1.00  0.00     0.081 A 
ATOM     82  CD2 TRP     9       8.633  12.941   6.097  1.00  0.00     0.015 A 
ATOM     83  CZ2 TRP     9       8.000  14.952   4.948  1.00  0.00     0.019 A 
ATOM     84  CE3 TRP     9       7.387  12.884   6.705  1.00  0.00     0.001 A 
ATOM     85  CZ3 TRP     9       6.442  13.868   6.438  1.00  0.00     0.000 A 
ATOM     86  CH2 TRP     9       6.749  14.891   5.543  1.00  0.00     0.002 A 
ENDBRANCH  77  78
ENDBRANCH  76  77
BRANCH  76  87
ATOM     87  C   TRP     9      11.101   8.863   6.812  1.00  0.00     0.275 C 
ATOM     88  O   TRP     9      11.069   7.637   6.868  1.00  0.00    -0.268 OA
ATOM     89  N   GLY    10      12.233   9.547   6.656  1.00  0.00    -0.226 NA
BRANCH  89  90
ATOM     90  CA  GLY    10      13.586   8.928   6.597  1.00  0.00     0.218 C 
BRANCH  90  91
ATOM     91  C   GLY    10      14.359   8.848   7.924  1.00  0.00     0.277 C 
ATOM     92  N   CYS    11      14.832   7.641   8.229  1.00  0.00    -0.228 NA
ATOM     93  O   GLY    10      14.367   9.798   8.698  1.00  0.00    -0.268 OA
BRANCH  92  94
ATOM     94  CA  CYS    11      15.627   7.281   9.424  1.00  0.00     0.198 C 
BRANCH  94  95
ATOM     95  C   CYS    11      16.542   6.098   9.052  1.00  0.00     0.275 C 
ATOM     96  O   CYS    11      17.321   5.661   9.892  1.00  0.00    -0.268 OA
ATOM     97  N   GLY    12      16.562   5.758   7.772  1.00  0.00    -0.225 NA
BRANCH  97  98
ATOM     98  CA  GLY    12      17.392   4.663   7.246  1.00  0.00     0.226 C 
BRANCH  98  99
ATOM     99  C   GLY    12      17.472   4.820   5.709  1.00  0.00     0.211 C 
ATOM    100  O1  GLY    12      18.606   5.071   5.227  1.00  0.00    -0.646 OA
ATOM    101  O2  GLY    12      16.427   4.655   5.054  1.00  0.00    -0.646 OA
ENDBRANCH  98  99
ENDBRANCH  97  98
ENDBRANCH  94  95
BRANCH  94 102
ATOM    102  CB  CYS    11      14.709   6.761  10.528  1.00  0.00     0.103 C 
ATOM    103  SG  CYS    11      13.648   5.331  10.090  1.00  0.00    -0.080 SA
ENDBRANCH  94 102
ENDBRANCH  92  94
ENDBRANCH  90  91
ENDBRANCH  89  90
ENDBRANCH  76  87
ENDBRANCH  74  76
ENDBRANCH  65  73
ENDBRANCH  63  65
ENDBRANCH  61  62
BRANCH  61 104
ATOM    104  CB  ASN     7       3.663  10.137   7.402  1.00  0.00     0.126 C 
BRANCH 104 105
ATOM    105  CG  ASN     7       2.687  10.243   6.215  1.00  0.00     0.276 C 
ATOM    106  ND2 ASN     7       1.738  11.143   6.328  1.00  0.00    -0.107 N 
ATOM    107  OD1 ASN     7       2.641   9.464   5.272  1.00  0.00    -0.269 OA
ENDBRANCH 104 105
ENDBRANCH  61 104
ENDBRANCH  59  61
ENDBRANCH   1  58
TORSDOF 42
ENDMDL
MODEL 6
REMARK VINA RESULT:      -3.9     24.152     32.680
REMARK WARNING: 32 MAX_TORS EXCEEDED!!!
REMARK  42 active torsions:
REMARK  status: ('A' for Active; 'I' for Inactive)
REMARK    1  A    between atoms: CA_2  and  CB_3 
REMARK    2  A    between atoms: CA_2  and  C_11 
REMARK    3  A    between atoms: CB_3  and  CG_4 
REMARK       I    between atoms: C_11  and  N_13 
REMARK    4  A    between atoms: N_13  and  CA_14 
REMARK    5  A    between atoms: CA_14  and  CB_15 
REMARK    6  A    between atoms: CA_14  and  C_19 
REMARK    7  A    between atoms: CB_15  and  CG_16 
REMARK       I    between atoms: C_19  and  N_21 
REMARK    8  A    between atoms: CA_22  and  C_26 
REMARK       I    between atoms: C_26  and  N_28 
REMARK    9  A    between atoms: N_28  and  CA_29 
REMARK   10  A    between atoms: CA_29  and  C_35 
REMARK   11  A    between atoms: CA_29  and  CB_30 
REMARK   12  A    between atoms: CB_30  and  CG_31 
REMARK   13  A    between atoms: CG_31  and  CD_32 
REMARK       I    between atoms: C_35  and  N_37 
REMARK   14  A    between atoms: N_37  and  CA_38 
REMARK   15  A    between atoms: CA_38  and  CB_39 
REMARK   16  A    between atoms: CA_38  and  C_47 
REMARK   17  A    between atoms: CB_39  and  CG_40 
REMARK       I    between atoms: C_47  and  N_49 
REMARK   18  A    between atoms: N_49  and  CA_50 
REMARK   19  A    between atoms: CA_50  and  CB_51 
REMARK   20  A    between atoms: CA_50  and  C_58 
REMARK   21  A    between atoms: CB_51  and  CG_52 
REMARK   22  A    between atoms: CG_52  and  CD_53 
REMARK   23  A    between atoms: CD_53  and  NE_54 
REMARK       I    between atoms: C_58  and  N_60 
REMARK   24  A    between atoms: N_60  and  CA_61 
REMARK   25  A    between atoms: CA_61  and  C_66 
REMARK   26  A    between atoms: CA_61  and  CB_62 
REMARK   27  A    between atoms: CB_62  and  CG_63 
REMARK       I    between atoms: C_66  and  N_68 
REMARK   28  A    between atoms: N_68  and  CA_69 
REMARK   29  A    between atoms: CA_69  and  CB_70 
REMARK   30  A    between atoms: CA_69  and  C_77 
REMARK   31  A    between atoms: CB_70  and  CG_71 
REMARK       I    between atoms: C_77  and  N_79 
REMARK   32  A    between atoms: N_79  and  CA_80 
REMARK   33  A    between atoms: CA_80  and  CB_81 
REMARK   34  A    between atoms: CA_80  and  C_91 
REMARK   35  A    between atoms: CB_81  and  CG_82 
REMARK       I    between atoms: C_91  and  N_93 
REMARK   36  A    between atoms: N_93  and  CA_94 
REMARK   37  A    between atoms: CA_94  and  C_95 
REMARK       I    between atoms: C_95  and  N_97 
REMARK   38  A    between atoms: N_97  and  CA_98 
REMARK   39  A    between atoms: CA_98  and  C_101 
REMARK   40  A    between atoms: CA_98  and  CB_99 
REMARK       I    between atoms: C_101  and  N_103 
REMARK   41  A    between atoms: N_103  and  CA_104 
REMARK   42  A    between atoms: CA_104  and  C_105 
ROOT
ATOM      1  CA  ARG     6      13.056 -25.618   5.790  1.00  0.00     0.186 C 
ENDROOT
BRANCH   1   2
ATOM      2  N   ARG     6      12.075 -26.586   6.334  1.00  0.00    -0.229 NA
ATOM      3  C   TYR     5      12.433 -27.601   7.131  1.00  0.00     0.275 C 
ATOM      4  O   TYR     5      13.598 -27.778   7.488  1.00  0.00    -0.268 OA
BRANCH   3   5
ATOM      5  CA  TYR     5      11.306 -28.487   7.686  1.00  0.00     0.191 C 
BRANCH   5   6
ATOM      6  N   TYR     5       9.974 -28.188   7.101  1.00  0.00    -0.228 NA
ATOM      7  C   GLU     4       9.025 -27.496   7.752  1.00  0.00     0.274 C 
ATOM      8  O   GLU     4       9.232 -26.937   8.822  1.00  0.00    -0.268 OA
BRANCH   7   9
ATOM      9  CA  GLU     4       7.757 -27.157   6.941  1.00  0.00     0.187 C 
BRANCH   9  10
ATOM     10  CB  GLU     4       8.142 -26.802   5.496  1.00  0.00     0.045 C 
BRANCH  10  11
ATOM     11  CG  GLU     4       7.059 -27.045   4.421  1.00  0.00     0.100 C 
BRANCH  11  12
ATOM     12  CD  GLU     4       6.155 -28.245   4.699  1.00  0.00     0.185 C 
ATOM     13  OE1 GLU     4       6.707 -29.370   4.815  1.00  0.00    -0.647 OA
ATOM     14  OE2 GLU     4       4.965 -28.146   4.336  1.00  0.00    -0.647 OA
ENDBRANCH  11  12
ENDBRANCH  10  11
ENDBRANCH   9  10
BRANCH   9  15
ATOM     15  N   GLU     4       6.983 -26.038   7.511  1.00  0.00    -0.229 NA
ATOM     16  C   PRO     3       5.866 -26.094   8.227  1.00  0.00     0.272 C 
ATOM     17  O   PRO     3       5.505 -27.100   8.839  1.00  0.00    -0.269 OA
BRANCH  16  18
ATOM     18  CA  PRO     3       5.306 -24.741   8.671  1.00  0.00     0.165 C 
ATOM     19  N   PRO     3       3.832 -24.680   8.769  1.00  0.00    -0.312 N 
ATOM     20  CD  PRO     3       3.443 -23.905   9.975  1.00  0.00     0.105 C 
ATOM     21  C   ASP     2       2.996 -25.129   7.815  1.00  0.00     0.257 C 
ATOM     22  CG  PRO     3       4.765 -23.311  10.486  1.00  0.00     0.027 C 
ATOM     23  CB  PRO     3       5.814 -24.330  10.051  1.00  0.00     0.034 C 
ATOM     24  O   ASP     2       3.431 -25.431   6.693  1.00  0.00    -0.270 OA
BRANCH  21  25
ATOM     25  CA  ASP     2       1.473 -24.936   7.986  1.00  0.00     0.195 C 
BRANCH  25  26
ATOM     26  CB  ASP     2       0.566 -25.665   6.961  1.00  0.00     0.132 C 
BRANCH  26  27
ATOM     27  CG  ASP     2       0.568 -27.182   7.225  1.00  0.00     0.188 C 
ATOM     28  OD2 ASP     2       0.951 -27.898   6.265  1.00  0.00    -0.647 OA
ATOM     29  OD1 ASP     2      -0.284 -27.614   8.041  1.00  0.00    -0.647 OA
ENDBRANCH  26  27
ENDBRANCH  25  26
BRANCH  25  30
ATOM     30  N   ASP     2       1.071 -23.528   7.821  1.00  0.00    -0.228 NA
ATOM     31  C   TYR     1       0.021 -22.944   8.350  1.00  0.00     0.289 C 
ATOM     32  O   TYR     1      -0.761 -23.401   9.190  1.00  0.00    -0.268 OA
BRANCH  31  33
ATOM     33  CA  TYR     1      -0.197 -21.543   7.788  1.00  0.00     0.385 C 
ATOM     34  N   TYR     1       1.022 -20.759   8.047  1.00  0.00     0.626 N 
BRANCH  33  35
ATOM     35  CB  TYR     1      -0.491 -21.692   6.297  1.00  0.00     0.075 C 
BRANCH  35  36
ATOM     36  CG  TYR     1      -1.993 -21.780   5.986  1.00  0.00    -0.019 A 
ATOM     37  CD2 TYR     1      -2.483 -22.660   5.034  1.00  0.00    -0.002 A 
ATOM     38  CE2 TYR     1      -3.851 -22.818   4.869  1.00  0.00     0.027 A 
ATOM     39  CZ  TYR     1      -4.722 -22.075   5.665  1.00  0.00     0.131 A 
ATOM     40  CE1 TYR     1      -4.226 -21.168   6.584  1.00  0.00     0.027 A 
ATOM     41  OH  TYR     1      -6.043 -22.343   5.657  1.00  0.00    -0.190 OA
ATOM     42  CD1 TYR     1      -2.858 -21.011   6.749  1.00  0.00    -0.002 A 
ENDBRANCH  35  36
ENDBRANCH  33  35
ENDBRANCH  31  33
ENDBRANCH  25  30
ENDBRANCH  21  25
ENDBRANCH  16  18
ENDBRANCH   9  15
ENDBRANCH   7   9
ENDBRANCH   5   6
BRANCH   5  43
ATOM     43  CB  TYR     5      11.640 -29.978   7.504  1.00  0.00     0.060 C 
BRANCH  43  44
ATOM     44  CG  TYR     5      10.808 -30.630   6.387  1.00  0.00    -0.020 A 
ATOM     45  CD2 TYR     5      11.155 -30.456   5.054  1.00  0.00    -0.002 A 
ATOM     46  CE2 TYR     5      10.401 -31.056   4.050  1.00  0.00     0.027 A 
ATOM     47  CZ  TYR     5       9.299 -31.830   4.381  1.00  0.00     0.131 A 
ATOM     48  CE1 TYR     5       8.955 -32.023   5.714  1.00  0.00     0.027 A 
ATOM     49  OH  TYR     5       8.482 -32.300   3.413  1.00  0.00    -0.190 OA
ATOM     50  CD1 TYR     5       9.708 -31.413   6.717  1.00  0.00    -0.002 A 
ENDBRANCH  43  44
ENDBRANCH   5  43
ENDBRANCH   3   5
ENDBRANCH   1   2
BRANCH   1  51
ATOM     51  CB  ARG     6      12.711 -25.151   4.380  1.00  0.00     0.036 C 
BRANCH  51  52
ATOM     52  CG  ARG     6      13.935 -24.927   3.489  1.00  0.00     0.029 C 
BRANCH  52  53
ATOM     53  CD  ARG     6      15.055 -25.890   3.873  1.00  0.00     0.145 C 
BRANCH  53  54
ATOM     54  NE  ARG     6      16.343 -25.185   3.985  1.00  0.00    -0.083 NA
ATOM     55  CZ  ARG     6      17.537 -25.769   4.199  1.00  0.00     0.782 C 
ATOM     56  NH2 ARG     6      18.634 -25.027   4.368  1.00  0.00     0.063 N 
ATOM     57  NH1 ARG     6      17.625 -27.088   4.331  1.00  0.00     0.063 N 
ENDBRANCH  53  54
ENDBRANCH  52  53
ENDBRANCH  51  52
ENDBRANCH   1  51
BRANCH   1  58
ATOM     58  C   ARG     6      13.176 -24.356   6.654  1.00  0.00     0.274 C 
ATOM     59  N   ASN     7      12.114 -24.065   7.400  1.00  0.00    -0.228 NA
ATOM     60  O   ARG     6      14.214 -23.694   6.611  1.00  0.00    -0.268 OA
BRANCH  59  61
ATOM     61  CA  ASN     7      12.079 -22.947   8.366  1.00  0.00     0.196 C 
BRANCH  61  62
ATOM     62  C   ASN     7      12.574 -21.633   7.731  1.00  0.00     0.275 C 
ATOM     63  N   PHE     8      11.968 -21.238   6.601  1.00  0.00    -0.228 NA
ATOM     64  O   ASN     7      13.173 -20.860   8.453  1.00  0.00    -0.268 OA
BRANCH  63  65
ATOM     65  CA  PHE     8      12.244 -19.965   5.891  1.00  0.00     0.191 C 
BRANCH  65  66
ATOM     66  CB  PHE     8      12.987 -20.292   4.589  1.00  0.00     0.060 C 
BRANCH  66  67
ATOM     67  CG  PHE     8      14.498 -20.538   4.762  1.00  0.00    -0.020 A 
ATOM     68  CD1 PHE     8      15.146 -21.462   3.955  1.00  0.00    -0.004 A 
ATOM     69  CE1 PHE     8      16.490 -21.758   4.180  1.00  0.00    -0.000 A 
ATOM     70  CZ  PHE     8      17.175 -21.117   5.199  1.00  0.00    -0.000 A 
ATOM     71  CE2 PHE     8      16.530 -20.180   6.001  1.00  0.00    -0.000 A 
ATOM     72  CD2 PHE     8      15.186 -19.884   5.776  1.00  0.00    -0.004 A 
ENDBRANCH  66  67
ENDBRANCH  65  66
BRANCH  65  73
ATOM     73  C   PHE     8      11.004 -19.080   5.634  1.00  0.00     0.275 C 
ATOM     74  N   TRP     9      10.880 -17.994   6.400  1.00  0.00    -0.228 NA
ATOM     75  O   PHE     8      10.065 -19.488   4.946  1.00  0.00    -0.268 OA
BRANCH  74  76
ATOM     76  CA  TRP     9       9.808 -16.993   6.180  1.00  0.00     0.191 C 
BRANCH  76  77
ATOM     77  CB  TRP     9       9.425 -16.371   7.533  1.00  0.00     0.062 C 
BRANCH  77  78
ATOM     78  CG  TRP     9       8.122 -16.930   8.105  1.00  0.00     0.001 A 
ATOM     79  CD1 TRP     9       8.007 -18.003   8.881  1.00  0.00     0.095 A 
ATOM     80  NE1 TRP     9       6.735 -18.373   8.949  1.00  0.00    -0.244 NA
ATOM     81  CE2 TRP     9       5.993 -17.539   8.237  1.00  0.00     0.081 A 
ATOM     82  CD2 TRP     9       6.843 -16.605   7.666  1.00  0.00     0.015 A 
ATOM     83  CZ2 TRP     9       4.637 -17.523   7.907  1.00  0.00     0.019 A 
ATOM     84  CE3 TRP     9       6.365 -15.667   6.762  1.00  0.00     0.001 A 
ATOM     85  CZ3 TRP     9       5.017 -15.658   6.422  1.00  0.00     0.000 A 
ATOM     86  CH2 TRP     9       4.153 -16.579   7.014  1.00  0.00     0.002 A 
ENDBRANCH  77  78
ENDBRANCH  76  77
BRANCH  76  87
ATOM     87  C   TRP     9      10.148 -15.909   5.131  1.00  0.00     0.275 C 
ATOM     88  O   TRP     9       9.943 -16.103   3.937  1.00  0.00    -0.268 OA
ATOM     89  N   GLY    10      10.571 -14.740   5.609  1.00  0.00    -0.226 NA
BRANCH  89  90
ATOM     90  CA  GLY    10      10.907 -13.561   4.764  1.00  0.00     0.218 C 
BRANCH  90  91
ATOM     91  C   GLY    10      12.351 -13.043   4.858  1.00  0.00     0.277 C 
ATOM     92  N   CYS    11      12.627 -12.341   5.956  1.00  0.00    -0.228 NA
ATOM     93  O   GLY    10      13.110 -13.136   3.901  1.00  0.00    -0.268 OA
BRANCH  92  94
ATOM     94  CA  CYS    11      13.933 -11.745   6.317  1.00  0.00     0.198 C 
BRANCH  94  95
ATOM     95  C   CYS    11      14.171 -11.988   7.820  1.00  0.00     0.275 C 
ATOM     96  O   CYS    11      13.546 -11.321   8.637  1.00  0.00    -0.268 OA
ATOM     97  N   GLY    12      15.192 -12.774   8.128  1.00  0.00    -0.225 NA
BRANCH  97  98
ATOM     98  CA  GLY    12      15.566 -13.096   9.514  1.00  0.00     0.226 C 
BRANCH  98  99
ATOM     99  C   GLY    12      15.277 -14.596   9.750  1.00  0.00     0.211 C 
ATOM    100  O1  GLY    12      14.205 -14.878  10.343  1.00  0.00    -0.646 OA
ATOM    101  O2  GLY    12      16.099 -15.421   9.311  1.00  0.00    -0.646 OA
ENDBRANCH  98  99
ENDBRANCH  97  98
ENDBRANCH  94  95
BRANCH  94 102
ATOM    102  CB  CYS    11      13.884 -10.228   6.147  1.00  0.00     0.103 C 
ATOM    103  SG  CYS    11      14.159  -9.596   4.447  1.00  0.00    -0.080 SA
ENDBRANCH  94 102
ENDBRANCH  92  94
ENDBRANCH  90  91
ENDBRANCH  89  90
ENDBRANCH  76  87
ENDBRANCH  74  76
ENDBRANCH  65  73
ENDBRANCH  63  65
ENDBRANCH  61  62
BRANCH  61 104
ATOM    104  CB  ASN     7      12.882 -23.279   9.630  1.00  0.00     0.126 C 
BRANCH 104 105
ATOM    105  CG  ASN     7      13.023 -24.782   9.931  1.00  0.00     0.276 C 
ATOM    106  ND2 ASN     7      11.990 -25.355  10.505  1.00  0.00    -0.107 N 
ATOM    107  OD1 ASN     7      14.058 -25.427   9.820  1.00  0.00    -0.269 OA
ENDBRANCH 104 105
ENDBRANCH  61 104
ENDBRANCH  59  61
ENDBRANCH   1  58
TORSDOF 42
ENDMDL
MODEL 7
REMARK VINA RESULT:      -3.9     23.145     31.918
REMARK WARNING: 32 MAX_TORS EXCEEDED!!!
REMARK  42 active torsions:
REMARK  status: ('A' for Active; 'I' for Inactive)
REMARK    1  A    between atoms: CA_2  and  CB_3 
REMARK    2  A    between atoms: CA_2  and  C_11 
REMARK    3  A    between atoms: CB_3  and  CG_4 
REMARK       I    between atoms: C_11  and  N_13 
REMARK    4  A    between atoms: N_13  and  CA_14 
REMARK    5  A    between atoms: CA_14  and  CB_15 
REMARK    6  A    between atoms: CA_14  and  C_19 
REMARK    7  A    between atoms: CB_15  and  CG_16 
REMARK       I    between atoms: C_19  and  N_21 
REMARK    8  A    between atoms: CA_22  and  C_26 
REMARK       I    between atoms: C_26  and  N_28 
REMARK    9  A    between atoms: N_28  and  CA_29 
REMARK   10  A    between atoms: CA_29  and  C_35 
REMARK   11  A    between atoms: CA_29  and  CB_30 
REMARK   12  A    between atoms: CB_30  and  CG_31 
REMARK   13  A    between atoms: CG_31  and  CD_32 
REMARK       I    between atoms: C_35  and  N_37 
REMARK   14  A    between atoms: N_37  and  CA_38 
REMARK   15  A    between atoms: CA_38  and  CB_39 
REMARK   16  A    between atoms: CA_38  and  C_47 
REMARK   17  A    between atoms: CB_39  and  CG_40 
REMARK       I    between atoms: C_47  and  N_49 
REMARK   18  A    between atoms: N_49  and  CA_50 
REMARK   19  A    between atoms: CA_50  and  CB_51 
REMARK   20  A    between atoms: CA_50  and  C_58 
REMARK   21  A    between atoms: CB_51  and  CG_52 
REMARK   22  A    between atoms: CG_52  and  CD_53 
REMARK   23  A    between atoms: CD_53  and  NE_54 
REMARK       I    between atoms: C_58  and  N_60 
REMARK   24  A    between atoms: N_60  and  CA_61 
REMARK   25  A    between atoms: CA_61  and  C_66 
REMARK   26  A    between atoms: CA_61  and  CB_62 
REMARK   27  A    between atoms: CB_62  and  CG_63 
REMARK       I    between atoms: C_66  and  N_68 
REMARK   28  A    between atoms: N_68  and  CA_69 
REMARK   29  A    between atoms: CA_69  and  CB_70 
REMARK   30  A    between atoms: CA_69  and  C_77 
REMARK   31  A    between atoms: CB_70  and  CG_71 
REMARK       I    between atoms: C_77  and  N_79 
REMARK   32  A    between atoms: N_79  and  CA_80 
REMARK   33  A    between atoms: CA_80  and  CB_81 
REMARK   34  A    between atoms: CA_80  and  C_91 
REMARK   35  A    between atoms: CB_81  and  CG_82 
REMARK       I    between atoms: C_91  and  N_93 
REMARK   36  A    between atoms: N_93  and  CA_94 
REMARK   37  A    between atoms: CA_94  and  C_95 
REMARK       I    between atoms: C_95  and  N_97 
REMARK   38  A    between atoms: N_97  and  CA_98 
REMARK   39  A    between atoms: CA_98  and  C_101 
REMARK   40  A    between atoms: CA_98  and  CB_99 
REMARK       I    between atoms: C_101  and  N_103 
REMARK   41  A    between atoms: N_103  and  CA_104 
REMARK   42  A    between atoms: CA_104  and  C_105 
ROOT
ATOM      1  CA  ARG     6      11.755 -25.777   6.356  1.00  0.00     0.186 C 
ENDROOT
BRANCH   1   2
ATOM      2  N   ARG     6      10.657 -26.205   7.254  1.00  0.00    -0.229 NA
ATOM      3  C   TYR     5      10.809 -27.182   8.158  1.00  0.00     0.275 C 
ATOM      4  O   TYR     5      11.880 -27.768   8.321  1.00  0.00    -0.268 OA
BRANCH   3   5
ATOM      5  CA  TYR     5       9.613 -27.477   9.078  1.00  0.00     0.191 C 
BRANCH   5   6
ATOM      6  N   TYR     5       8.296 -27.243   8.431  1.00  0.00    -0.228 NA
ATOM      7  C   GLU     4       7.376 -26.398   8.926  1.00  0.00     0.274 C 
ATOM      8  O   GLU     4       7.604 -25.651   9.868  1.00  0.00    -0.268 OA
BRANCH   7   9
ATOM      9  CA  GLU     4       6.126 -26.172   8.051  1.00  0.00     0.187 C 
BRANCH   9  10
ATOM     10  CB  GLU     4       6.447 -26.507   6.586  1.00  0.00     0.045 C 
BRANCH  10  11
ATOM     11  CG  GLU     4       5.243 -26.869   5.688  1.00  0.00     0.100 C 
BRANCH  11  12
ATOM     12  CD  GLU     4       5.619 -27.578   4.387  1.00  0.00     0.185 C 
ATOM     13  OE1 GLU     4       5.856 -28.813   4.449  1.00  0.00    -0.647 OA
ATOM     14  OE2 GLU     4       6.119 -26.872   3.488  1.00  0.00    -0.647 OA
ENDBRANCH  11  12
ENDBRANCH  10  11
ENDBRANCH   9  10
BRANCH   9  15
ATOM     15  N   GLU     4       5.612 -24.790   8.117  1.00  0.00    -0.229 NA
ATOM     16  C   PRO     3       4.528 -24.348   8.744  1.00  0.00     0.272 C 
ATOM     17  O   PRO     3       3.990 -24.953   9.672  1.00  0.00    -0.269 OA
BRANCH  16  18
ATOM     18  CA  PRO     3       4.268 -22.845   8.616  1.00  0.00     0.165 C 
ATOM     19  N   PRO     3       2.846 -22.451   8.711  1.00  0.00    -0.312 N 
ATOM     20  CD  PRO     3       2.726 -21.204   9.509  1.00  0.00     0.105 C 
ATOM     21  C   ASP     2       1.852 -23.056   8.036  1.00  0.00     0.257 C 
ATOM     22  CG  PRO     3       4.177 -20.741   9.710  1.00  0.00     0.027 C 
ATOM     23  CB  PRO     3       4.977 -22.041   9.703  1.00  0.00     0.034 C 
ATOM     24  O   ASP     2       2.110 -23.854   7.122  1.00  0.00    -0.270 OA
BRANCH  21  25
ATOM     25  CA  ASP     2       0.412 -22.504   8.145  1.00  0.00     0.195 C 
BRANCH  25  26
ATOM     26  CB  ASP     2      -0.431 -23.009   9.344  1.00  0.00     0.132 C 
BRANCH  26  27
ATOM     27  CG  ASP     2      -0.553 -24.544   9.307  1.00  0.00     0.188 C 
ATOM     28  OD2 ASP     2      -1.706 -24.990   9.078  1.00  0.00    -0.647 OA
ATOM     29  OD1 ASP     2       0.248 -25.191  10.026  1.00  0.00    -0.647 OA
ENDBRANCH  26  27
ENDBRANCH  25  26
BRANCH  25  30
ATOM     30  N   ASP     2      -0.417 -22.887   6.990  1.00  0.00    -0.228 NA
ATOM     31  C   TYR     1      -1.068 -22.077   6.187  1.00  0.00     0.289 C 
ATOM     32  O   TYR     1      -1.015 -20.844   6.146  1.00  0.00    -0.268 OA
BRANCH  31  33
ATOM     33  CA  TYR     1      -1.993 -22.834   5.239  1.00  0.00     0.385 C 
ATOM     34  N   TYR     1      -1.162 -23.730   4.418  1.00  0.00     0.626 N 
BRANCH  33  35
ATOM     35  CB  TYR     1      -3.001 -23.594   6.097  1.00  0.00     0.075 C 
BRANCH  35  36
ATOM     36  CG  TYR     1      -4.208 -22.737   6.508  1.00  0.00    -0.019 A 
ATOM     37  CD2 TYR     1      -4.116 -21.803   7.529  1.00  0.00    -0.002 A 
ATOM     38  CE2 TYR     1      -5.177 -20.949   7.789  1.00  0.00     0.027 A 
ATOM     39  CZ  TYR     1      -6.335 -21.047   7.019  1.00  0.00     0.131 A 
ATOM     40  CE1 TYR     1      -6.435 -22.009   6.030  1.00  0.00     0.027 A 
ATOM     41  OH  TYR     1      -7.301 -20.113   7.125  1.00  0.00    -0.190 OA
ATOM     42  CD1 TYR     1      -5.374 -22.863   5.769  1.00  0.00    -0.002 A 
ENDBRANCH  35  36
ENDBRANCH  33  35
ENDBRANCH  31  33
ENDBRANCH  25  30
ENDBRANCH  21  25
ENDBRANCH  16  18
ENDBRANCH   9  15
ENDBRANCH   7   9
ENDBRANCH   5   6
BRANCH   5  43
ATOM     43  CB  TYR     5       9.684 -28.913   9.626  1.00  0.00     0.060 C 
BRANCH  43  44
ATOM     44  CG  TYR     5       9.133 -29.946   8.629  1.00  0.00    -0.020 A 
ATOM     45  CD2 TYR     5       8.809 -29.574   7.331  1.00  0.00    -0.002 A 
ATOM     46  CE2 TYR     5       8.319 -30.517   6.434  1.00  0.00     0.027 A 
ATOM     47  CZ  TYR     5       8.153 -31.834   6.835  1.00  0.00     0.131 A 
ATOM     48  CE1 TYR     5       8.492 -32.219   8.127  1.00  0.00     0.027 A 
ATOM     49  OH  TYR     5       7.549 -32.724   6.017  1.00  0.00    -0.190 OA
ATOM     50  CD1 TYR     5       8.975 -31.269   9.027  1.00  0.00    -0.002 A 
ENDBRANCH  43  44
ENDBRANCH   5  43
ENDBRANCH   3   5
ENDBRANCH   1   2
BRANCH   1  51
ATOM     51  CB  ARG     6      11.315 -25.646   4.901  1.00  0.00     0.036 C 
BRANCH  51  52
ATOM     52  CG  ARG     6      11.098 -26.990   4.202  1.00  0.00     0.029 C 
BRANCH  52  53
ATOM     53  CD  ARG     6      12.222 -27.960   4.552  1.00  0.00     0.145 C 
BRANCH  53  54
ATOM     54  NE  ARG     6      11.687 -29.196   5.147  1.00  0.00    -0.083 NA
ATOM     55  CZ  ARG     6      12.414 -30.137   5.780  1.00  0.00     0.782 C 
ATOM     56  NH2 ARG     6      11.839 -31.262   6.210  1.00  0.00     0.063 N 
ATOM     57  NH1 ARG     6      13.729 -29.995   5.909  1.00  0.00     0.063 N 
ENDBRANCH  53  54
ENDBRANCH  52  53
ENDBRANCH  51  52
ENDBRANCH   1  51
BRANCH   1  58
ATOM     58  C   ARG     6      12.347 -24.420   6.758  1.00  0.00     0.274 C 
ATOM     59  N   ASN     7      11.961 -23.951   7.942  1.00  0.00    -0.228 NA
ATOM     60  O   ARG     6      13.122 -23.850   5.989  1.00  0.00    -0.268 OA
BRANCH  59  61
ATOM     61  CA  ASN     7      12.499 -22.712   8.541  1.00  0.00     0.196 C 
BRANCH  61  62
ATOM     62  C   ASN     7      12.880 -21.679   7.462  1.00  0.00     0.275 C 
ATOM     63  N   PHE     8      11.872 -21.038   6.852  1.00  0.00    -0.228 NA
ATOM     64  O   ASN     7      14.010 -21.233   7.497  1.00  0.00    -0.268 OA
BRANCH  63  65
ATOM     65  CA  PHE     8      12.037 -19.953   5.854  1.00  0.00     0.191 C 
BRANCH  65  66
ATOM     66  CB  PHE     8      12.509 -20.582   4.535  1.00  0.00     0.060 C 
BRANCH  66  67
ATOM     67  CG  PHE     8      13.964 -20.250   4.157  1.00  0.00    -0.020 A 
ATOM     68  CD1 PHE     8      14.827 -21.266   3.768  1.00  0.00    -0.004 A 
ATOM     69  CE1 PHE     8      16.170 -20.980   3.524  1.00  0.00    -0.000 A 
ATOM     70  CZ  PHE     8      16.632 -19.681   3.657  1.00  0.00    -0.000 A 
ATOM     71  CE2 PHE     8      15.767 -18.659   4.033  1.00  0.00    -0.000 A 
ATOM     72  CD2 PHE     8      14.423 -18.945   4.277  1.00  0.00    -0.004 A 
ENDBRANCH  66  67
ENDBRANCH  65  66
BRANCH  65  73
ATOM     73  C   PHE     8      10.793 -19.060   5.648  1.00  0.00     0.275 C 
ATOM     74  N   TRP     9      10.886 -17.803   6.085  1.00  0.00    -0.228 NA
ATOM     75  O   PHE     8       9.706 -19.551   5.336  1.00  0.00    -0.268 OA
BRANCH  74  76
ATOM     76  CA  TRP     9       9.816 -16.804   5.843  1.00  0.00     0.191 C 
BRANCH  76  77
ATOM     77  CB  TRP     9       9.377 -16.210   7.192  1.00  0.00     0.062 C 
BRANCH  77  78
ATOM     78  CG  TRP     9       8.153 -16.906   7.786  1.00  0.00     0.001 A 
ATOM     79  CD1 TRP     9       8.155 -18.062   8.444  1.00  0.00     0.095 A 
ATOM     80  NE1 TRP     9       6.913 -18.514   8.558  1.00  0.00    -0.244 NA
ATOM     81  CE2 TRP     9       6.075 -17.656   7.995  1.00  0.00     0.081 A 
ATOM     82  CD2 TRP     9       6.829 -16.616   7.475  1.00  0.00     0.015 A 
ATOM     83  CZ2 TRP     9       4.700 -17.689   7.763  1.00  0.00     0.019 A 
ATOM     84  CE3 TRP     9       6.235 -15.618   6.715  1.00  0.00     0.001 A 
ATOM     85  CZ3 TRP     9       4.866 -15.656   6.472  1.00  0.00     0.000 A 
ATOM     86  CH2 TRP     9       4.101 -16.686   7.015  1.00  0.00     0.002 A 
ENDBRANCH  77  78
ENDBRANCH  76  77
BRANCH  76  87
ATOM     87  C   TRP     9      10.188 -15.699   4.828  1.00  0.00     0.275 C 
ATOM     88  O   TRP     9       9.990 -15.855   3.627  1.00  0.00    -0.268 OA
ATOM     89  N   GLY    10      10.633 -14.554   5.342  1.00  0.00    -0.226 NA
BRANCH  89  90
ATOM     90  CA  GLY    10      11.001 -13.359   4.534  1.00  0.00     0.218 C 
BRANCH  90  91
ATOM     91  C   GLY    10      12.342 -12.690   4.877  1.00  0.00     0.277 C 
ATOM     92  N   CYS    11      12.522 -12.418   6.169  1.00  0.00    -0.228 NA
ATOM     93  O   GLY    10      13.086 -12.293   3.988  1.00  0.00    -0.268 OA
BRANCH  92  94
ATOM     94  CA  CYS    11      13.719 -11.801   6.782  1.00  0.00     0.198 C 
BRANCH  94  95
ATOM     95  C   CYS    11      13.671 -10.285   6.506  1.00  0.00     0.275 C 
ATOM     96  O   CYS    11      12.770  -9.618   7.002  1.00  0.00    -0.268 OA
ATOM     97  N   GLY    12      14.504  -9.835   5.579  1.00  0.00    -0.225 NA
BRANCH  97  98
ATOM     98  CA  GLY    12      14.575  -8.420   5.184  1.00  0.00     0.226 C 
BRANCH  98  99
ATOM     99  C   GLY    12      15.997  -7.905   5.506  1.00  0.00     0.211 C 
ATOM    100  O1  GLY    12      16.535  -8.350   6.552  1.00  0.00    -0.646 OA
ATOM    101  O2  GLY    12      16.526  -7.118   4.700  1.00  0.00    -0.646 OA
ENDBRANCH  98  99
ENDBRANCH  97  98
ENDBRANCH  94  95
BRANCH  94 102
ATOM    102  CB  CYS    11      14.983 -12.305   6.090  1.00  0.00     0.103 C 
ATOM    103  SG  CYS    11      16.417 -12.655   7.179  1.00  0.00    -0.080 SA
ENDBRANCH  94 102
ENDBRANCH  92  94
ENDBRANCH  90  91
ENDBRANCH  89  90
ENDBRANCH  76  87
ENDBRANCH  74  76
ENDBRANCH  65  73
ENDBRANCH  63  65
ENDBRANCH  61  62
BRANCH  61 104
ATOM    104  CB  ASN     7      13.693 -23.009   9.457  1.00  0.00     0.126 C 
BRANCH 104 105
ATOM    105  CG  ASN     7      14.323 -24.401   9.268  1.00  0.00     0.276 C 
ATOM    106  ND2 ASN     7      13.881 -25.347  10.063  1.00  0.00    -0.107 N 
ATOM    107  OD1 ASN     7      15.290 -24.644   8.557  1.00  0.00    -0.269 OA
ENDBRANCH 104 105
ENDBRANCH  61 104
ENDBRANCH  59  61
ENDBRANCH   1  58
TORSDOF 42
ENDMDL
MODEL 8
REMARK VINA RESULT:      -3.6      2.777      5.043
REMARK WARNING: 32 MAX_TORS EXCEEDED!!!
REMARK  42 active torsions:
REMARK  status: ('A' for Active; 'I' for Inactive)
REMARK    1  A    between atoms: CA_2  and  CB_3 
REMARK    2  A    between atoms: CA_2  and  C_11 
REMARK    3  A    between atoms: CB_3  and  CG_4 
REMARK       I    between atoms: C_11  and  N_13 
REMARK    4  A    between atoms: N_13  and  CA_14 
REMARK    5  A    between atoms: CA_14  and  CB_15 
REMARK    6  A    between atoms: CA_14  and  C_19 
REMARK    7  A    between atoms: CB_15  and  CG_16 
REMARK       I    between atoms: C_19  and  N_21 
REMARK    8  A    between atoms: CA_22  and  C_26 
REMARK       I    between atoms: C_26  and  N_28 
REMARK    9  A    between atoms: N_28  and  CA_29 
REMARK   10  A    between atoms: CA_29  and  C_35 
REMARK   11  A    between atoms: CA_29  and  CB_30 
REMARK   12  A    between atoms: CB_30  and  CG_31 
REMARK   13  A    between atoms: CG_31  and  CD_32 
REMARK       I    between atoms: C_35  and  N_37 
REMARK   14  A    between atoms: N_37  and  CA_38 
REMARK   15  A    between atoms: CA_38  and  CB_39 
REMARK   16  A    between atoms: CA_38  and  C_47 
REMARK   17  A    between atoms: CB_39  and  CG_40 
REMARK       I    between atoms: C_47  and  N_49 
REMARK   18  A    between atoms: N_49  and  CA_50 
REMARK   19  A    between atoms: CA_50  and  CB_51 
REMARK   20  A    between atoms: CA_50  and  C_58 
REMARK   21  A    between atoms: CB_51  and  CG_52 
REMARK   22  A    between atoms: CG_52  and  CD_53 
REMARK   23  A    between atoms: CD_53  and  NE_54 
REMARK       I    between atoms: C_58  and  N_60 
REMARK   24  A    between atoms: N_60  and  CA_61 
REMARK   25  A    between atoms: CA_61  and  C_66 
REMARK   26  A    between atoms: CA_61  and  CB_62 
REMARK   27  A    between atoms: CB_62  and  CG_63 
REMARK       I    between atoms: C_66  and  N_68 
REMARK   28  A    between atoms: N_68  and  CA_69 
REMARK   29  A    between atoms: CA_69  and  CB_70 
REMARK   30  A    between atoms: CA_69  and  C_77 
REMARK   31  A    between atoms: CB_70  and  CG_71 
REMARK       I    between atoms: C_77  and  N_79 
REMARK   32  A    between atoms: N_79  and  CA_80 
REMARK   33  A    between atoms: CA_80  and  CB_81 
REMARK   34  A    between atoms: CA_80  and  C_91 
REMARK   35  A    between atoms: CB_81  and  CG_82 
REMARK       I    between atoms: C_91  and  N_93 
REMARK   36  A    between atoms: N_93  and  CA_94 
REMARK   37  A    between atoms: CA_94  and  C_95 
REMARK       I    between atoms: C_95  and  N_97 
REMARK   38  A    between atoms: N_97  and  CA_98 
REMARK   39  A    between atoms: CA_98  and  C_101 
REMARK   40  A    between atoms: CA_98  and  CB_99 
REMARK       I    between atoms: C_101  and  N_103 
REMARK   41  A    between atoms: N_103  and  CA_104 
REMARK   42  A    between atoms: CA_104  and  C_105 
ROOT
ATOM      1  CA  ARG     6       0.805   6.387   9.341  1.00  0.00     0.186 C 
ENDROOT
BRANCH   1   2
ATOM      2  N   ARG     6      -0.414   6.927   8.696  1.00  0.00    -0.229 NA
ATOM      3  C   TYR     5      -1.023   8.039   9.130  1.00  0.00     0.275 C 
ATOM      4  O   TYR     5      -0.592   8.700  10.075  1.00  0.00    -0.268 OA
BRANCH   3   5
ATOM      5  CA  TYR     5      -2.237   8.532   8.326  1.00  0.00     0.191 C 
BRANCH   5   6
ATOM      6  N   TYR     5      -2.156   9.968   7.951  1.00  0.00    -0.228 NA
ATOM      7  C   GLU     4      -2.473  10.965   8.794  1.00  0.00     0.274 C 
ATOM      8  O   GLU     4      -2.718  10.776   9.979  1.00  0.00    -0.268 OA
BRANCH   7   9
ATOM      9  CA  GLU     4      -2.196  12.395   8.286  1.00  0.00     0.187 C 
BRANCH   9  10
ATOM     10  CB  GLU     4      -1.087  13.043   9.131  1.00  0.00     0.045 C 
BRANCH  10  11
ATOM     11  CG  GLU     4      -1.095  14.586   9.202  1.00  0.00     0.100 C 
BRANCH  11  12
ATOM     12  CD  GLU     4       0.257  15.207   9.549  1.00  0.00     0.185 C 
ATOM     13  OE1 GLU     4       0.311  16.461   9.639  1.00  0.00    -0.647 OA
ATOM     14  OE2 GLU     4       1.271  14.539   9.262  1.00  0.00    -0.647 OA
ENDBRANCH  11  12
ENDBRANCH  10  11
ENDBRANCH   9  10
BRANCH   9  15
ATOM     15  N   GLU     4      -3.386  13.267   8.322  1.00  0.00    -0.229 NA
ATOM     16  C   PRO     3      -4.660  12.910   8.425  1.00  0.00     0.272 C 
ATOM     17  O   PRO     3      -5.024  11.824   8.879  1.00  0.00    -0.269 OA
BRANCH  16  18
ATOM     18  CA  PRO     3      -5.663  14.066   8.433  1.00  0.00     0.165 C 
ATOM     19  N   PRO     3      -7.044  13.693   8.058  1.00  0.00    -0.312 N 
ATOM     20  CD  PRO     3      -8.009  14.410   8.930  1.00  0.00     0.105 C 
ATOM     21  C   ASP     2      -7.355  12.943   6.985  1.00  0.00     0.257 C 
ATOM     22  CG  PRO     3      -7.143  15.409   9.713  1.00  0.00     0.027 C 
ATOM     23  CB  PRO     3      -5.786  14.716   9.809  1.00  0.00     0.034 C 
ATOM     24  O   ASP     2      -6.498  12.697   6.123  1.00  0.00    -0.270 OA
BRANCH  21  25
ATOM     25  CA  ASP     2      -8.839  12.687   6.640  1.00  0.00     0.195 C 
BRANCH  25  26
ATOM     26  CB  ASP     2      -9.129  11.517   5.665  1.00  0.00     0.132 C 
BRANCH  26  27
ATOM     27  CG  ASP     2     -10.481  10.860   5.999  1.00  0.00     0.188 C 
ATOM     28  OD2 ASP     2     -10.824  10.912   7.208  1.00  0.00    -0.647 OA
ATOM     29  OD1 ASP     2     -10.832   9.892   5.279  1.00  0.00    -0.647 OA
ENDBRANCH  26  27
ENDBRANCH  25  26
BRANCH  25  30
ATOM     30  N   ASP     2      -9.453  13.835   5.950  1.00  0.00    -0.228 NA
ATOM     31  C   TYR     1      -8.924  14.539   4.977  1.00  0.00     0.289 C 
ATOM     32  O   TYR     1      -7.883  14.313   4.352  1.00  0.00    -0.268 OA
BRANCH  31  33
ATOM     33  CA  TYR     1      -9.750  15.782   4.658  1.00  0.00     0.385 C 
ATOM     34  N   TYR     1      -9.224  16.365   3.413  1.00  0.00     0.626 N 
BRANCH  33  35
ATOM     35  CB  TYR     1     -11.206  15.340   4.528  1.00  0.00     0.075 C 
BRANCH  35  36
ATOM     36  CG  TYR     1     -12.188  16.294   5.224  1.00  0.00    -0.019 A 
ATOM     37  CD2 TYR     1     -12.540  16.124   6.554  1.00  0.00    -0.002 A 
ATOM     38  CE2 TYR     1     -13.321  17.074   7.196  1.00  0.00     0.027 A 
ATOM     39  CZ  TYR     1     -13.750  18.195   6.485  1.00  0.00     0.131 A 
ATOM     40  CE1 TYR     1     -13.429  18.337   5.147  1.00  0.00     0.027 A 
ATOM     41  OH  TYR     1     -14.346  19.218   7.128  1.00  0.00    -0.190 OA
ATOM     42  CD1 TYR     1     -12.649  17.387   4.505  1.00  0.00    -0.002 A 
ENDBRANCH  35  36
ENDBRANCH  33  35
ENDBRANCH  31  33
ENDBRANCH  25  30
ENDBRANCH  21  25
ENDBRANCH  16  18
ENDBRANCH   9  15
ENDBRANCH   7   9
ENDBRANCH   5   6
BRANCH   5  43
ATOM     43  CB  TYR     5      -2.450   7.671   7.069  1.00  0.00     0.060 C 
BRANCH  43  44
ATOM     44  CG  TYR     5      -3.728   8.059   6.306  1.00  0.00    -0.020 A 
ATOM     45  CD2 TYR     5      -3.933   7.623   5.003  1.00  0.00    -0.002 A 
ATOM     46  CE2 TYR     5      -5.095   7.973   4.323  1.00  0.00     0.027 A 
ATOM     47  CZ  TYR     5      -6.053   8.758   4.946  1.00  0.00     0.131 A 
ATOM     48  CE1 TYR     5      -5.863   9.184   6.256  1.00  0.00     0.027 A 
ATOM     49  OH  TYR     5      -7.115   9.217   4.249  1.00  0.00    -0.190 OA
ATOM     50  CD1 TYR     5      -4.693   8.839   6.932  1.00  0.00    -0.002 A 
ENDBRANCH  43  44
ENDBRANCH   5  43
ENDBRANCH   3   5
ENDBRANCH   1   2
BRANCH   1  51
ATOM     51  CB  ARG     6       0.775   4.869   9.490  1.00  0.00     0.036 C 
BRANCH  51  52
ATOM     52  CG  ARG     6      -0.397   4.203   8.765  1.00  0.00     0.029 C 
BRANCH  52  53
ATOM     53  CD  ARG     6      -1.461   3.762   9.766  1.00  0.00     0.145 C 
BRANCH  53  54
ATOM     54  NE  ARG     6      -2.301   2.691   9.206  1.00  0.00    -0.083 NA
ATOM     55  CZ  ARG     6      -3.618   2.789   8.941  1.00  0.00     0.782 C 
ATOM     56  NH2 ARG     6      -4.304   1.728   8.511  1.00  0.00     0.063 N 
ATOM     57  NH1 ARG     6      -4.269   3.920   9.188  1.00  0.00     0.063 N 
ENDBRANCH  53  54
ENDBRANCH  52  53
ENDBRANCH  51  52
ENDBRANCH   1  51
BRANCH   1  58
ATOM     58  C   ARG     6       2.081   6.725   8.559  1.00  0.00     0.274 C 
ATOM     59  N   ASN     7       2.539   7.965   8.711  1.00  0.00    -0.228 NA
ATOM     60  O   ARG     6       2.599   5.861   7.850  1.00  0.00    -0.268 OA
BRANCH  59  61
ATOM     61  CA  ASN     7       3.804   8.444   8.118  1.00  0.00     0.196 C 
BRANCH  61  62
ATOM     62  C   ASN     7       4.916   8.568   9.178  1.00  0.00     0.275 C 
ATOM     63  N   PHE     8       6.183   8.509   8.739  1.00  0.00    -0.228 NA
ATOM     64  O   ASN     7       4.617   9.083  10.238  1.00  0.00    -0.268 OA
BRANCH  63  65
ATOM     65  CA  PHE     8       7.384   8.694   9.590  1.00  0.00     0.191 C 
BRANCH  65  66
ATOM     66  CB  PHE     8       7.759   7.334  10.193  1.00  0.00     0.060 C 
BRANCH  66  67
ATOM     67  CG  PHE     8       8.358   6.334   9.186  1.00  0.00    -0.020 A 
ATOM     68  CD1 PHE     8       7.543   5.742   8.230  1.00  0.00    -0.004 A 
ATOM     69  CE1 PHE     8       8.063   4.762   7.385  1.00  0.00    -0.000 A 
ATOM     70  CZ  PHE     8       9.395   4.395   7.495  1.00  0.00    -0.000 A 
ATOM     71  CE2 PHE     8      10.216   4.996   8.444  1.00  0.00    -0.000 A 
ATOM     72  CD2 PHE     8       9.696   5.976   9.288  1.00  0.00    -0.004 A 
ENDBRANCH  66  67
ENDBRANCH  65  66
BRANCH  65  73
ATOM     73  C   PHE     8       8.588   9.357   8.883  1.00  0.00     0.275 C 
ATOM     74  N   TRP     9       8.527   9.434   7.553  1.00  0.00    -0.228 NA
ATOM     75  O   PHE     8       9.642   9.566   9.489  1.00  0.00    -0.268 OA
BRANCH  74  76
ATOM     76  CA  TRP     9       9.552  10.154   6.757  1.00  0.00     0.191 C 
BRANCH  76  77
ATOM     77  CB  TRP     9       9.810  11.524   7.405  1.00  0.00     0.062 C 
BRANCH  77  78
ATOM     78  CG  TRP     9       9.056  12.664   6.722  1.00  0.00     0.001 A 
ATOM     79  CD1 TRP     9       7.737  12.829   6.706  1.00  0.00     0.095 A 
ATOM     80  NE1 TRP     9       7.409  13.733   5.792  1.00  0.00    -0.244 NA
ATOM     81  CE2 TRP     9       8.506  14.191   5.208  1.00  0.00     0.081 A 
ATOM     82  CD2 TRP     9       9.586  13.523   5.764  1.00  0.00     0.015 A 
ATOM     83  CZ2 TRP     9       8.717  15.068   4.144  1.00  0.00     0.019 A 
ATOM     84  CE3 TRP     9      10.867  13.704   5.265  1.00  0.00     0.001 A 
ATOM     85  CZ3 TRP     9      11.077  14.568   4.195  1.00  0.00     0.000 A 
ATOM     86  CH2 TRP     9       9.998  15.262   3.651  1.00  0.00     0.002 A 
ENDBRANCH  77  78
ENDBRANCH  76  77
BRANCH  76  87
ATOM     87  C   TRP     9      10.866   9.368   6.543  1.00  0.00     0.275 C 
ATOM     88  O   TRP     9      10.897   8.147   6.668  1.00  0.00    -0.268 OA
ATOM     89  N   GLY    10      11.913  10.076   6.125  1.00  0.00    -0.226 NA
BRANCH  89  90
ATOM     90  CA  GLY    10      13.250   9.496   5.822  1.00  0.00     0.218 C 
BRANCH  90  91
ATOM     91  C   GLY    10      13.363   8.683   4.522  1.00  0.00     0.277 C 
ATOM     92  N   CYS    11      13.574   7.379   4.690  1.00  0.00    -0.228 NA
ATOM     93  O   GLY    10      13.424   9.249   3.436  1.00  0.00    -0.268 OA
BRANCH  92  94
ATOM     94  CA  CYS    11      13.699   6.361   3.623  1.00  0.00     0.198 C 
BRANCH  94  95
ATOM     95  C   CYS    11      12.909   5.111   4.058  1.00  0.00     0.275 C 
ATOM     96  O   CYS    11      11.888   4.811   3.451  1.00  0.00    -0.268 OA
ATOM     97  N   GLY    12      13.287   4.553   5.199  1.00  0.00    -0.225 NA
BRANCH  97  98
ATOM     98  CA  GLY    12      12.630   3.365   5.766  1.00  0.00     0.226 C 
BRANCH  98  99
ATOM     99  C   GLY    12      13.087   2.132   4.952  1.00  0.00     0.211 C 
ATOM    100  O1  GLY    12      14.321   1.894   4.935  1.00  0.00    -0.646 OA
ATOM    101  O2  GLY    12      12.209   1.441   4.403  1.00  0.00    -0.646 OA
ENDBRANCH  98  99
ENDBRANCH  97  98
ENDBRANCH  94  95
BRANCH  94 102
ATOM    102  CB  CYS    11      15.152   5.907   3.497  1.00  0.00     0.103 C 
ATOM    103  SG  CYS    11      16.310   6.540   4.771  1.00  0.00    -0.080 SA
ENDBRANCH  94 102
ENDBRANCH  92  94
ENDBRANCH  90  91
ENDBRANCH  89  90
ENDBRANCH  76  87
ENDBRANCH  74  76
ENDBRANCH  65  73
ENDBRANCH  63  65
ENDBRANCH  61  62
BRANCH  61 104
ATOM    104  CB  ASN     7       3.605   9.773   7.379  1.00  0.00     0.126 C 
BRANCH 104 105
ATOM    105  CG  ASN     7       2.506   9.755   6.300  1.00  0.00     0.276 C 
ATOM    106  ND2 ASN     7       1.479  10.546   6.510  1.00  0.00    -0.107 N 
ATOM    107  OD1 ASN     7       2.450   8.964   5.367  1.00  0.00    -0.269 OA
ENDBRANCH 104 105
ENDBRANCH  61 104
ENDBRANCH  59  61
ENDBRANCH   1  58
TORSDOF 42
ENDMDL
MODEL 9
REMARK VINA RESULT:      -3.6      9.968     19.031
REMARK WARNING: 32 MAX_TORS EXCEEDED!!!
REMARK  42 active torsions:
REMARK  status: ('A' for Active; 'I' for Inactive)
REMARK    1  A    between atoms: CA_2  and  CB_3 
REMARK    2  A    between atoms: CA_2  and  C_11 
REMARK    3  A    between atoms: CB_3  and  CG_4 
REMARK       I    between atoms: C_11  and  N_13 
REMARK    4  A    between atoms: N_13  and  CA_14 
REMARK    5  A    between atoms: CA_14  and  CB_15 
REMARK    6  A    between atoms: CA_14  and  C_19 
REMARK    7  A    between atoms: CB_15  and  CG_16 
REMARK       I    between atoms: C_19  and  N_21 
REMARK    8  A    between atoms: CA_22  and  C_26 
REMARK       I    between atoms: C_26  and  N_28 
REMARK    9  A    between atoms: N_28  and  CA_29 
REMARK   10  A    between atoms: CA_29  and  C_35 
REMARK   11  A    between atoms: CA_29  and  CB_30 
REMARK   12  A    between atoms: CB_30  and  CG_31 
REMARK   13  A    between atoms: CG_31  and  CD_32 
REMARK       I    between atoms: C_35  and  N_37 
REMARK   14  A    between atoms: N_37  and  CA_38 
REMARK   15  A    between atoms: CA_38  and  CB_39 
REMARK   16  A    between atoms: CA_38  and  C_47 
REMARK   17  A    between atoms: CB_39  and  CG_40 
REMARK       I    between atoms: C_47  and  N_49 
REMARK   18  A    between atoms: N_49  and  CA_50 
REMARK   19  A    between atoms: CA_50  and  CB_51 
REMARK   20  A    between atoms: CA_50  and  C_58 
REMARK   21  A    between atoms: CB_51  and  CG_52 
REMARK   22  A    between atoms: CG_52  and  CD_53 
REMARK   23  A    between atoms: CD_53  and  NE_54 
REMARK       I    between atoms: C_58  and  N_60 
REMARK   24  A    between atoms: N_60  and  CA_61 
REMARK   25  A    between atoms: CA_61  and  C_66 
REMARK   26  A    between atoms: CA_61  and  CB_62 
REMARK   27  A    between atoms: CB_62  and  CG_63 
REMARK       I    between atoms: C_66  and  N_68 
REMARK   28  A    between atoms: N_68  and  CA_69 
REMARK   29  A    between atoms: CA_69  and  CB_70 
REMARK   30  A    between atoms: CA_69  and  C_77 
REMARK   31  A    between atoms: CB_70  and  CG_71 
REMARK       I    between atoms: C_77  and  N_79 
REMARK   32  A    between atoms: N_79  and  CA_80 
REMARK   33  A    between atoms: CA_80  and  CB_81 
REMARK   34  A    between atoms: CA_80  and  C_91 
REMARK   35  A    between atoms: CB_81  and  CG_82 
REMARK       I    between atoms: C_91  and  N_93 
REMARK   36  A    between atoms: N_93  and  CA_94 
REMARK   37  A    between atoms: CA_94  and  C_95 
REMARK       I    between atoms: C_95  and  N_97 
REMARK   38  A    between atoms: N_97  and  CA_98 
REMARK   39  A    between atoms: CA_98  and  C_101 
REMARK   40  A    between atoms: CA_98  and  CB_99 
REMARK       I    between atoms: C_101  and  N_103 
REMARK   41  A    between atoms: N_103  and  CA_104 
REMARK   42  A    between atoms: CA_104  and  C_105 
ROOT
ATOM      1  CA  ARG     6      10.374   2.652   8.810  1.00  0.00     0.186 C 
ENDROOT
BRANCH   1   2
ATOM      2  N   ARG     6      11.317   1.567   8.453  1.00  0.00    -0.229 NA
ATOM      3  C   TYR     5      12.360   1.238   9.226  1.00  0.00     0.275 C 
ATOM      4  O   TYR     5      12.586   1.798  10.300  1.00  0.00    -0.268 OA
BRANCH   3   5
ATOM      5  CA  TYR     5      13.217   0.044   8.777  1.00  0.00     0.191 C 
BRANCH   5   6
ATOM      6  N   TYR     5      13.988   0.302   7.533  1.00  0.00    -0.228 NA
ATOM      7  C   GLU     4      13.581  -0.106   6.319  1.00  0.00     0.274 C 
ATOM      8  O   GLU     4      12.477  -0.599   6.124  1.00  0.00    -0.268 OA
BRANCH   7   9
ATOM      9  CA  GLU     4      14.431   0.370   5.124  1.00  0.00     0.187 C 
BRANCH   9  10
ATOM     10  CB  GLU     4      14.430  -0.702   4.023  1.00  0.00     0.045 C 
BRANCH  10  11
ATOM     11  CG  GLU     4      15.311  -1.945   4.278  1.00  0.00     0.100 C 
BRANCH  11  12
ATOM     12  CD  GLU     4      14.527  -3.238   4.495  1.00  0.00     0.185 C 
ATOM     13  OE1 GLU     4      15.182  -4.312   4.536  1.00  0.00    -0.647 OA
ATOM     14  OE2 GLU     4      13.327  -3.230   4.154  1.00  0.00    -0.647 OA
ENDBRANCH  11  12
ENDBRANCH  10  11
ENDBRANCH   9  10
BRANCH   9  15
ATOM     15  N   GLU     4      15.830   0.671   5.488  1.00  0.00    -0.229 NA
ATOM     16  C   PRO     3      16.719   1.383   4.806  1.00  0.00     0.272 C 
ATOM     17  O   PRO     3      16.408   2.211   3.948  1.00  0.00    -0.269 OA
BRANCH  16  18
ATOM     18  CA  PRO     3      18.096   1.508   5.461  1.00  0.00     0.165 C 
ATOM     19  N   PRO     3      18.097   2.161   6.787  1.00  0.00    -0.312 N 
ATOM     20  CD  PRO     3      19.040   1.454   7.691  1.00  0.00     0.105 C 
ATOM     21  C   ASP     2      17.455   3.312   7.058  1.00  0.00     0.257 C 
ATOM     22  CG  PRO     3      19.777   0.466   6.773  1.00  0.00     0.027 C 
ATOM     23  CB  PRO     3      18.755   0.148   5.686  1.00  0.00     0.034 C 
ATOM     24  O   ASP     2      16.996   4.005   6.138  1.00  0.00    -0.270 OA
BRANCH  21  25
ATOM     25  CA  ASP     2      17.596   3.950   8.459  1.00  0.00     0.195 C 
BRANCH  25  26
ATOM     26  CB  ASP     2      16.389   3.782   9.417  1.00  0.00     0.132 C 
BRANCH  26  27
ATOM     27  CG  ASP     2      15.149   4.497   8.851  1.00  0.00     0.188 C 
ATOM     28  OD2 ASP     2      14.732   5.474   9.524  1.00  0.00    -0.647 OA
ATOM     29  OD1 ASP     2      14.347   3.795   8.185  1.00  0.00    -0.647 OA
ENDBRANCH  26  27
ENDBRANCH  25  26
BRANCH  25  30
ATOM     30  N   ASP     2      17.745   5.413   8.388  1.00  0.00    -0.228 NA
ATOM     31  C   TYR     1      18.326   6.186   9.276  1.00  0.00     0.289 C 
ATOM     32  O   TYR     1      18.978   5.848  10.269  1.00  0.00    -0.268 OA
BRANCH  31  33
ATOM     33  CA  TYR     1      18.101   7.666   8.979  1.00  0.00     0.385 C 
ATOM     34  N   TYR     1      18.795   8.445  10.018  1.00  0.00     0.626 N 
BRANCH  33  35
ATOM     35  CB  TYR     1      18.649   7.938   7.580  1.00  0.00     0.075 C 
BRANCH  35  36
ATOM     36  CG  TYR     1      17.786   8.923   6.777  1.00  0.00    -0.019 A 
ATOM     37  CD2 TYR     1      16.884   8.481   5.821  1.00  0.00    -0.002 A 
ATOM     38  CE2 TYR     1      16.022   9.377   5.208  1.00  0.00     0.027 A 
ATOM     39  CZ  TYR     1      16.078  10.725   5.561  1.00  0.00     0.131 A 
ATOM     40  CE1 TYR     1      17.008  11.165   6.486  1.00  0.00     0.027 A 
ATOM     41  OH  TYR     1      15.133  11.580   5.123  1.00  0.00    -0.190 OA
ATOM     42  CD1 TYR     1      17.871  10.269   7.098  1.00  0.00    -0.002 A 
ENDBRANCH  35  36
ENDBRANCH  33  35
ENDBRANCH  31  33
ENDBRANCH  25  30
ENDBRANCH  21  25
ENDBRANCH  16  18
ENDBRANCH   9  15
ENDBRANCH   7   9
ENDBRANCH   5   6
BRANCH   5  43
ATOM     43  CB  TYR     5      14.166  -0.406   9.901  1.00  0.00     0.060 C 
BRANCH  43  44
ATOM     44  CG  TYR     5      15.189  -1.448   9.419  1.00  0.00    -0.020 A 
ATOM     45  CD2 TYR     5      16.530  -1.113   9.286  1.00  0.00    -0.002 A 
ATOM     46  CE2 TYR     5      17.450  -2.065   8.856  1.00  0.00     0.027 A 
ATOM     47  CZ  TYR     5      17.029  -3.352   8.560  1.00  0.00     0.131 A 
ATOM     48  CE1 TYR     5      15.691  -3.700   8.708  1.00  0.00     0.027 A 
ATOM     49  OH  TYR     5      17.886  -4.239   8.011  1.00  0.00    -0.190 OA
ATOM     50  CD1 TYR     5      14.769  -2.742   9.130  1.00  0.00    -0.002 A 
ENDBRANCH  43  44
ENDBRANCH   5  43
ENDBRANCH   3   5
ENDBRANCH   1   2
BRANCH   1  51
ATOM     51  CB  ARG     6       9.991   2.643  10.287  1.00  0.00     0.036 C 
BRANCH  51  52
ATOM     52  CG  ARG     6       8.519   2.307  10.537  1.00  0.00     0.029 C 
BRANCH  52  53
ATOM     53  CD  ARG     6       8.106   1.085   9.723  1.00  0.00     0.145 C 
BRANCH  53  54
ATOM     54  NE  ARG     6       8.687  -0.146  10.287  1.00  0.00    -0.083 NA
ATOM     55  CZ  ARG     6       9.185  -1.173   9.573  1.00  0.00     0.782 C 
ATOM     56  NH2 ARG     6       9.612  -2.280  10.185  1.00  0.00     0.063 N 
ATOM     57  NH1 ARG     6       9.177  -1.133   8.245  1.00  0.00     0.063 N 
ENDBRANCH  53  54
ENDBRANCH  52  53
ENDBRANCH  51  52
ENDBRANCH   1  51
BRANCH   1  58
ATOM     58  C   ARG     6      10.943   4.045   8.513  1.00  0.00     0.274 C 
ATOM     59  N   ASN     7      10.896   4.428   7.240  1.00  0.00    -0.228 NA
ATOM     60  O   ARG     6      11.404   4.716   9.437  1.00  0.00    -0.268 OA
BRANCH  59  61
ATOM     61  CA  ASN     7      11.305   5.771   6.778  1.00  0.00     0.196 C 
BRANCH  61  62
ATOM     62  C   ASN     7      10.172   6.800   6.951  1.00  0.00     0.275 C 
ATOM     63  N   PHE     8      10.518   8.096   6.918  1.00  0.00    -0.228 NA
ATOM     64  O   ASN     7       9.040   6.422   6.720  1.00  0.00    -0.268 OA
BRANCH  63  65
ATOM     65  CA  PHE     8       9.564   9.230   6.981  1.00  0.00     0.191 C 
BRANCH  65  66
ATOM     66  CB  PHE     8       9.020   9.322   8.413  1.00  0.00     0.060 C 
BRANCH  66  67
ATOM     67  CG  PHE     8       7.483   9.371   8.509  1.00  0.00    -0.020 A 
ATOM     68  CD1 PHE     8       6.817  10.576   8.340  1.00  0.00    -0.004 A 
ATOM     69  CE1 PHE     8       5.436  10.638   8.528  1.00  0.00    -0.000 A 
ATOM     70  CZ  PHE     8       4.736   9.492   8.866  1.00  0.00    -0.000 A 
ATOM     71  CE2 PHE     8       5.400   8.280   9.022  1.00  0.00    -0.000 A 
ATOM     72  CD2 PHE     8       6.781   8.218   8.835  1.00  0.00    -0.004 A 
ENDBRANCH  66  67
ENDBRANCH  65  66
BRANCH  65  73
ATOM     73  C   PHE     8      10.128  10.585   6.496  1.00  0.00     0.275 C 
ATOM     74  N   TRP     9      10.152  11.572   7.392  1.00  0.00    -0.228 NA
ATOM     75  O   PHE     8      10.302  10.805   5.295  1.00  0.00    -0.268 OA
BRANCH  74  76
ATOM     76  CA  TRP     9      10.779  12.885   7.101  1.00  0.00     0.191 C 
BRANCH  76  77
ATOM     77  CB  TRP     9      12.246  12.657   6.701  1.00  0.00     0.062 C 
BRANCH  77  78
ATOM     78  CG  TRP     9      13.183  12.521   7.902  1.00  0.00     0.001 A 
ATOM     79  CD1 TRP     9      13.879  13.505   8.463  1.00  0.00     0.095 A 
ATOM     80  NE1 TRP     9      14.798  12.996   9.275  1.00  0.00    -0.244 NA
ATOM     81  CE2 TRP     9      14.707  11.675   9.274  1.00  0.00     0.081 A 
ATOM     82  CD2 TRP     9      13.693  11.325   8.397  1.00  0.00     0.015 A 
ATOM     83  CZ2 TRP     9      15.473  10.673   9.870  1.00  0.00     0.019 A 
ATOM     84  CE3 TRP     9      13.443   9.995   8.093  1.00  0.00     0.001 A 
ATOM     85  CZ3 TRP     9      14.214   8.995   8.676  1.00  0.00     0.000 A 
ATOM     86  CH2 TRP     9      15.217   9.341   9.579  1.00  0.00     0.002 A 
ENDBRANCH  77  78
ENDBRANCH  76  77
BRANCH  76  87
ATOM     87  C   TRP     9      10.029  13.735   6.050  1.00  0.00     0.275 C 
ATOM     88  O   TRP     9      10.617  14.198   5.078  1.00  0.00    -0.268 OA
ATOM     89  N   GLY    10       8.711  13.843   6.214  1.00  0.00    -0.226 NA
BRANCH  89  90
ATOM     90  CA  GLY    10       7.809  14.581   5.287  1.00  0.00     0.218 C 
BRANCH  90  91
ATOM     91  C   GLY    10       6.821  15.565   5.936  1.00  0.00     0.277 C 
ATOM     92  N   CYS    11       7.230  16.096   7.087  1.00  0.00    -0.228 NA
ATOM     93  O   GLY    10       5.685  15.690   5.493  1.00  0.00    -0.268 OA
BRANCH  92  94
ATOM     94  CA  CYS    11       6.497  17.083   7.912  1.00  0.00     0.198 C 
BRANCH  94  95
ATOM     95  C   CYS    11       7.031  18.487   7.565  1.00  0.00     0.275 C 
ATOM     96  O   CYS    11       8.155  18.806   7.938  1.00  0.00    -0.268 OA
ATOM     97  N   GLY    12       6.151  19.333   7.050  1.00  0.00    -0.225 NA
BRANCH  97  98
ATOM     98  CA  GLY    12       6.491  20.715   6.678  1.00  0.00     0.226 C 
BRANCH  98  99
ATOM     99  C   GLY    12       6.575  20.788   5.136  1.00  0.00     0.211 C 
ATOM    100  O1  GLY    12       6.819  19.712   4.533  1.00  0.00    -0.646 OA
ATOM    101  O2  GLY    12       6.362  21.888   4.594  1.00  0.00    -0.646 OA
ENDBRANCH  98  99
ENDBRANCH  97  98
ENDBRANCH  94  95
BRANCH  94 102
ATOM    102  CB  CYS    11       6.818  16.874   9.390  1.00  0.00     0.103 C 
ATOM    103  SG  CYS    11       8.074  15.593   9.771  1.00  0.00    -0.080 SA
ENDBRANCH  94 102
ENDBRANCH  92  94
ENDBRANCH  90  91
ENDBRANCH  89  90
ENDBRANCH  76  87
ENDBRANCH  74  76
ENDBRANCH  65  73
ENDBRANCH  63  65
ENDBRANCH  61  62
BRANCH  61 104
ATOM    104  CB  ASN     7      11.791   5.734   5.323  1.00  0.00     0.126 C 
BRANCH 104 105
ATOM    105  CG  ASN     7      13.172   6.373   5.085  1.00  0.00     0.276 C 
ATOM    106  ND2 ASN     7      13.948   6.477   6.139  1.00  0.00    -0.107 N 
ATOM    107  OD1 ASN     7      13.524   6.919   4.047  1.00  0.00    -0.269 OA
ENDBRANCH 104 105
ENDBRANCH  61 104
ENDBRANCH  59  61
ENDBRANCH   1  58
TORSDOF 42
ENDMDL
