MODEL 1
REMARK VINA RESULT:      -3.6      0.000      0.000
REMARK WARNING: 32 MAX_TORS EXCEEDED!!!
REMARK  42 active torsions:
REMARK  status: ('A' for Active; 'I' for Inactive)
REMARK    1  A    between atoms: CA_2  and  CB_3 
REMARK    2  A    between atoms: CA_2  and  C_11 
REMARK    3  A    between atoms: CB_3  and  CG_4 
REMARK       I    between atoms: C_11  and  N_13 
REMARK    4  A    between atoms: N_13  and  CA_14 
REMARK    5  A    between atoms: CA_14  and  CB_15 
REMARK    6  A    between atoms: CA_14  and  C_19 
REMARK    7  A    between atoms: CB_15  and  CG_16 
REMARK       I    between atoms: C_19  and  N_21 
REMARK    8  A    between atoms: CA_22  and  C_26 
REMARK       I    between atoms: C_26  and  N_28 
REMARK    9  A    between atoms: N_28  and  CA_29 
REMARK   10  A    between atoms: CA_29  and  C_35 
REMARK   11  A    between atoms: CA_29  and  CB_30 
REMARK   12  A    between atoms: CB_30  and  CG_31 
REMARK   13  A    between atoms: CG_31  and  CD_32 
REMARK       I    between atoms: C_35  and  N_37 
REMARK   14  A    between atoms: N_37  and  CA_38 
REMARK   15  A    between atoms: CA_38  and  CB_39 
REMARK   16  A    between atoms: CA_38  and  C_47 
REMARK   17  A    between atoms: CB_39  and  CG_40 
REMARK       I    between atoms: C_47  and  N_49 
REMARK   18  A    between atoms: N_49  and  CA_50 
REMARK   19  A    between atoms: CA_50  and  CB_51 
REMARK   20  A    between atoms: CA_50  and  C_58 
REMARK   21  A    between atoms: CB_51  and  CG_52 
REMARK   22  A    between atoms: CG_52  and  CD_53 
REMARK   23  A    between atoms: CD_53  and  NE_54 
REMARK       I    between atoms: C_58  and  N_60 
REMARK   24  A    between atoms: N_60  and  CA_61 
REMARK   25  A    between atoms: CA_61  and  C_66 
REMARK   26  A    between atoms: CA_61  and  CB_62 
REMARK   27  A    between atoms: CB_62  and  CG_63 
REMARK       I    between atoms: C_66  and  N_68 
REMARK   28  A    between atoms: N_68  and  CA_69 
REMARK   29  A    between atoms: CA_69  and  CB_70 
REMARK   30  A    between atoms: CA_69  and  C_77 
REMARK   31  A    between atoms: CB_70  and  CG_71 
REMARK       I    between atoms: C_77  and  N_79 
REMARK   32  A    between atoms: N_79  and  CA_80 
REMARK   33  A    between atoms: CA_80  and  CB_81 
REMARK   34  A    between atoms: CA_80  and  C_91 
REMARK   35  A    between atoms: CB_81  and  CG_82 
REMARK       I    between atoms: C_91  and  N_93 
REMARK   36  A    between atoms: N_93  and  CA_94 
REMARK   37  A    between atoms: CA_94  and  C_95 
REMARK       I    between atoms: C_95  and  N_97 
REMARK   38  A    between atoms: N_97  and  CA_98 
REMARK   39  A    between atoms: CA_98  and  C_101 
REMARK   40  A    between atoms: CA_98  and  CB_99 
REMARK       I    between atoms: C_101  and  N_103 
REMARK   41  A    between atoms: N_103  and  CA_104 
REMARK   42  A    between atoms: CA_104  and  C_105 
ROOT
ATOM      1  CA  ARG     6       5.964  -0.846  10.089  1.00  0.00     0.186 C 
ENDROOT
BRANCH   1   2
ATOM      2  N   ARG     6       7.282  -1.506  10.233  1.00  0.00    -0.229 NA
ATOM      3  C   TYR     5       8.415  -0.955   9.778  1.00  0.00     0.275 C 
ATOM      4  O   TYR     5       8.438   0.150   9.236  1.00  0.00    -0.268 OA
BRANCH   3   5
ATOM      5  CA  TYR     5       9.724  -1.711  10.058  1.00  0.00     0.191 C 
BRANCH   5   6
ATOM      6  N   TYR     5      10.847  -0.824  10.457  1.00  0.00    -0.228 NA
ATOM      7  C   GLU     4      11.624  -0.180   9.570  1.00  0.00     0.274 C 
ATOM      8  O   GLU     4      11.381  -0.162   8.370  1.00  0.00    -0.268 OA
BRANCH   7   9
ATOM      9  CA  GLU     4      12.650   0.808  10.161  1.00  0.00     0.187 C 
BRANCH   9  10
ATOM     10  CB  GLU     4      11.968   2.153  10.459  1.00  0.00     0.045 C 
BRANCH  10  11
ATOM     11  CG  GLU     4      10.888   2.609   9.454  1.00  0.00     0.100 C 
BRANCH  11  12
ATOM     12  CD  GLU     4      11.059   4.043   8.954  1.00  0.00     0.185 C 
ATOM     13  OE1 GLU     4      12.220   4.408   8.631  1.00  0.00    -0.647 OA
ATOM     14  OE2 GLU     4      10.204   4.872   9.325  1.00  0.00    -0.647 OA
ENDBRANCH  11  12
ENDBRANCH  10  11
ENDBRANCH   9  10
BRANCH   9  15
ATOM     15  N   GLU     4      13.803   1.051   9.272  1.00  0.00    -0.229 NA
ATOM     16  C   PRO     3      14.997   1.537   9.592  1.00  0.00     0.272 C 
ATOM     17  O   PRO     3      15.452   1.514  10.736  1.00  0.00    -0.269 OA
BRANCH  16  18
ATOM     18  CA  PRO     3      15.980   1.671   8.428  1.00  0.00     0.165 C 
ATOM     19  N   PRO     3      16.787   2.910   8.434  1.00  0.00    -0.312 N 
ATOM     20  CD  PRO     3      18.182   2.600   8.030  1.00  0.00     0.105 C 
ATOM     21  C   ASP     2      16.274   4.139   8.626  1.00  0.00     0.257 C 
ATOM     22  CG  PRO     3      18.126   1.136   7.564  1.00  0.00     0.027 C 
ATOM     23  CB  PRO     3      16.999   0.533   8.398  1.00  0.00     0.034 C 
ATOM     24  O   ASP     2      15.047   4.318   8.597  1.00  0.00    -0.270 OA
BRANCH  21  25
ATOM     25  CA  ASP     2      17.200   5.373   8.527  1.00  0.00     0.195 C 
BRANCH  25  26
ATOM     26  CB  ASP     2      18.169   5.605   9.714  1.00  0.00     0.132 C 
BRANCH  26  27
ATOM     27  CG  ASP     2      18.579   7.087   9.792  1.00  0.00     0.188 C 
ATOM     28  OD2 ASP     2      19.157   7.544   8.773  1.00  0.00    -0.647 OA
ATOM     29  OD1 ASP     2      18.850   7.538  10.933  1.00  0.00    -0.647 OA
ENDBRANCH  26  27
ENDBRANCH  25  26
BRANCH  25  30
ATOM     30  N   ASP     2      16.439   6.634   8.487  1.00  0.00    -0.228 NA
ATOM     31  C   TYR     1      15.615   7.082   9.404  1.00  0.00     0.289 C 
ATOM     32  O   TYR     1      15.409   6.623  10.532  1.00  0.00    -0.268 OA
BRANCH  31  33
ATOM     33  CA  TYR     1      14.843   8.309   8.928  1.00  0.00     0.385 C 
ATOM     34  N   TYR     1      13.508   8.271   9.548  1.00  0.00     0.626 N 
BRANCH  33  35
ATOM     35  CB  TYR     1      15.644   9.540   9.342  1.00  0.00     0.075 C 
BRANCH  35  36
ATOM     36  CG  TYR     1      14.757  10.745   9.694  1.00  0.00    -0.019 A 
ATOM     37  CD2 TYR     1      13.830  11.246   8.794  1.00  0.00    -0.002 A 
ATOM     38  CE2 TYR     1      12.949  12.244   9.183  1.00  0.00     0.027 A 
ATOM     39  CZ  TYR     1      13.015  12.739  10.485  1.00  0.00     0.131 A 
ATOM     40  CE1 TYR     1      13.970  12.263  11.365  1.00  0.00     0.027 A 
ATOM     41  OH  TYR     1      12.057  13.569  10.944  1.00  0.00    -0.190 OA
ATOM     42  CD1 TYR     1      14.850  11.265  10.976  1.00  0.00    -0.002 A 
ENDBRANCH  35  36
ENDBRANCH  33  35
ENDBRANCH  31  33
ENDBRANCH  25  30
ENDBRANCH  21  25
ENDBRANCH  16  18
ENDBRANCH   9  15
ENDBRANCH   7   9
ENDBRANCH   5   6
BRANCH   5  43
ATOM     43  CB  TYR     5       9.511  -2.802  11.121  1.00  0.00     0.060 C 
BRANCH  43  44
ATOM     44  CG  TYR     5      10.291  -4.089  10.801  1.00  0.00    -0.020 A 
ATOM     45  CD2 TYR     5       9.619  -5.269  10.509  1.00  0.00    -0.002 A 
ATOM     46  CE2 TYR     5      10.333  -6.426  10.214  1.00  0.00     0.027 A 
ATOM     47  CZ  TYR     5      11.719  -6.403  10.209  1.00  0.00     0.131 A 
ATOM     48  CE1 TYR     5      12.399  -5.221  10.483  1.00  0.00     0.027 A 
ATOM     49  OH  TYR     5      12.418  -7.549  10.061  1.00  0.00    -0.190 OA
ATOM     50  CD1 TYR     5      11.681  -4.065  10.787  1.00  0.00    -0.002 A 
ENDBRANCH  43  44
ENDBRANCH   5  43
ENDBRANCH   3   5
ENDBRANCH   1   2
BRANCH   1  51
ATOM     51  CB  ARG     6       5.046  -1.086  11.284  1.00  0.00     0.036 C 
BRANCH  51  52
ATOM     52  CG  ARG     6       3.589  -1.352  10.896  1.00  0.00     0.029 C 
BRANCH  52  53
ATOM     53  CD  ARG     6       3.288  -2.847  10.959  1.00  0.00     0.145 C 
BRANCH  53  54
ATOM     54  NE  ARG     6       4.469  -3.640  10.579  1.00  0.00    -0.083 NA
ATOM     55  CZ  ARG     6       4.495  -4.598   9.633  1.00  0.00     0.782 C 
ATOM     56  NH2 ARG     6       5.601  -5.316   9.426  1.00  0.00     0.063 N 
ATOM     57  NH1 ARG     6       3.394  -4.901   8.954  1.00  0.00     0.063 N 
ENDBRANCH  53  54
ENDBRANCH  52  53
ENDBRANCH  51  52
ENDBRANCH   1  51
BRANCH   1  58
ATOM     58  C   ARG     6       6.084   0.675   9.927  1.00  0.00     0.274 C 
ATOM     59  N   ASN     7       5.385   1.205   8.927  1.00  0.00    -0.228 NA
ATOM     60  O   ARG     6       6.801   1.308  10.703  1.00  0.00    -0.268 OA
BRANCH  59  61
ATOM     61  CA  ASN     7       5.298   2.659   8.675  1.00  0.00     0.196 C 
BRANCH  61  62
ATOM     62  C   ASN     7       3.860   3.181   8.859  1.00  0.00     0.275 C 
ATOM     63  N   PHE     8       3.597   4.411   8.393  1.00  0.00    -0.228 NA
ATOM     64  O   ASN     7       2.989   2.353   9.041  1.00  0.00    -0.268 OA
BRANCH  63  65
ATOM     65  CA  PHE     8       2.259   5.052   8.399  1.00  0.00     0.191 C 
BRANCH  65  66
ATOM     66  CB  PHE     8       1.526   4.622   9.677  1.00  0.00     0.060 C 
BRANCH  66  67
ATOM     67  CG  PHE     8       0.152   3.970   9.435  1.00  0.00    -0.020 A 
ATOM     68  CD1 PHE     8      -0.483   3.290  10.465  1.00  0.00    -0.004 A 
ATOM     69  CE1 PHE     8      -1.678   2.613  10.217  1.00  0.00    -0.000 A 
ATOM     70  CZ  PHE     8      -2.231   2.638   8.947  1.00  0.00    -0.000 A 
ATOM     71  CE2 PHE     8      -1.604   3.330   7.917  1.00  0.00    -0.000 A 
ATOM     72  CD2 PHE     8      -0.409   4.006   8.165  1.00  0.00    -0.004 A 
ENDBRANCH  66  67
ENDBRANCH  65  66
BRANCH  65  73
ATOM     73  C   PHE     8       2.270   6.588   8.235  1.00  0.00     0.275 C 
ATOM     74  N   TRP     9       1.433   7.274   9.016  1.00  0.00    -0.228 NA
ATOM     75  O   PHE     8       2.827   7.119   7.271  1.00  0.00    -0.268 OA
BRANCH  74  76
ATOM     76  CA  TRP     9       1.428   8.758   9.053  1.00  0.00     0.191 C 
BRANCH  76  77
ATOM     77  CB  TRP     9      -0.007   9.242   9.323  1.00  0.00     0.062 C 
BRANCH  77  78
ATOM     78  CG  TRP     9      -1.074   8.296   8.774  1.00  0.00     0.001 A 
ATOM     79  CD1 TRP     9      -1.662   8.387   7.585  1.00  0.00     0.095 A 
ATOM     80  NE1 TRP     9      -2.730   7.601   7.551  1.00  0.00    -0.244 NA
ATOM     81  CE2 TRP     9      -2.850   6.967   8.708  1.00  0.00     0.081 A 
ATOM     82  CD2 TRP     9      -1.817   7.392   9.528  1.00  0.00     0.015 A 
ATOM     83  CZ2 TRP     9      -3.824   6.111   9.222  1.00  0.00     0.019 A 
ATOM     84  CE3 TRP     9      -1.750   6.990  10.854  1.00  0.00     0.001 A 
ATOM     85  CZ3 TRP     9      -2.728   6.147  11.372  1.00  0.00     0.000 A 
ATOM     86  CH2 TRP     9      -3.753   5.696  10.544  1.00  0.00     0.002 A 
ENDBRANCH  77  78
ENDBRANCH  76  77
BRANCH  76  87
ATOM     87  C   TRP     9       2.435   9.379  10.046  1.00  0.00     0.275 C 
ATOM     88  O   TRP     9       2.064  10.171  10.907  1.00  0.00    -0.268 OA
ATOM     89  N   GLY    10       3.687   8.929   9.973  1.00  0.00    -0.226 NA
BRANCH  89  90
ATOM     90  CA  GLY    10       4.791   9.370  10.870  1.00  0.00     0.218 C 
BRANCH  90  91
ATOM     91  C   GLY    10       5.976  10.079  10.194  1.00  0.00     0.277 C 
ATOM     92  N   CYS    11       6.180  11.335  10.587  1.00  0.00    -0.228 NA
ATOM     93  O   GLY    10       6.556   9.559   9.248  1.00  0.00    -0.268 OA
BRANCH  92  94
ATOM     94  CA  CYS    11       7.255  12.241  10.125  1.00  0.00     0.198 C 
BRANCH  94  95
ATOM     95  C   CYS    11       6.893  13.675  10.561  1.00  0.00     0.275 C 
ATOM     96  O   CYS    11       7.683  14.302  11.258  1.00  0.00    -0.268 OA
ATOM     97  N   GLY    12       5.651  14.063  10.313  1.00  0.00    -0.225 NA
BRANCH  97  98
ATOM     98  CA  GLY    12       5.138  15.392  10.678  1.00  0.00     0.226 C 
BRANCH  98  99
ATOM     99  C   GLY    12       3.624  15.422  10.369  1.00  0.00     0.211 C 
ATOM    100  O1  GLY    12       3.021  14.319  10.395  1.00  0.00    -0.646 OA
ATOM    101  O2  GLY    12       3.098  16.529  10.150  1.00  0.00    -0.646 OA
ENDBRANCH  98  99
ENDBRANCH  97  98
ENDBRANCH  94  95
BRANCH  94 102
ATOM    102  CB  CYS    11       7.295  12.273   8.598  1.00  0.00     0.103 C 
ATOM    103  SG  CYS    11       8.684  11.374   7.808  1.00  0.00    -0.080 SA
ENDBRANCH  94 102
ENDBRANCH  92  94
ENDBRANCH  90  91
ENDBRANCH  89  90
ENDBRANCH  76  87
ENDBRANCH  74  76
ENDBRANCH  65  73
ENDBRANCH  63  65
ENDBRANCH  61  62
BRANCH  61 104
ATOM    104  CB  ASN     7       5.835   3.016   7.283  1.00  0.00     0.126 C 
BRANCH 104 105
ATOM    105  CG  ASN     7       7.261   3.596   7.268  1.00  0.00     0.276 C 
ATOM    106  ND2 ASN     7       8.240   2.720   7.268  1.00  0.00    -0.107 N 
ATOM    107  OD1 ASN     7       7.539   4.780   7.411  1.00  0.00    -0.269 OA
ENDBRANCH 104 105
ENDBRANCH  61 104
ENDBRANCH  59  61
ENDBRANCH   1  58
TORSDOF 42
ENDMDL
MODEL 2
REMARK VINA RESULT:      -3.5     20.866     31.752
REMARK WARNING: 32 MAX_TORS EXCEEDED!!!
REMARK  42 active torsions:
REMARK  status: ('A' for Active; 'I' for Inactive)
REMARK    1  A    between atoms: CA_2  and  CB_3 
REMARK    2  A    between atoms: CA_2  and  C_11 
REMARK    3  A    between atoms: CB_3  and  CG_4 
REMARK       I    between atoms: C_11  and  N_13 
REMARK    4  A    between atoms: N_13  and  CA_14 
REMARK    5  A    between atoms: CA_14  and  CB_15 
REMARK    6  A    between atoms: CA_14  and  C_19 
REMARK    7  A    between atoms: CB_15  and  CG_16 
REMARK       I    between atoms: C_19  and  N_21 
REMARK    8  A    between atoms: CA_22  and  C_26 
REMARK       I    between atoms: C_26  and  N_28 
REMARK    9  A    between atoms: N_28  and  CA_29 
REMARK   10  A    between atoms: CA_29  and  C_35 
REMARK   11  A    between atoms: CA_29  and  CB_30 
REMARK   12  A    between atoms: CB_30  and  CG_31 
REMARK   13  A    between atoms: CG_31  and  CD_32 
REMARK       I    between atoms: C_35  and  N_37 
REMARK   14  A    between atoms: N_37  and  CA_38 
REMARK   15  A    between atoms: CA_38  and  CB_39 
REMARK   16  A    between atoms: CA_38  and  C_47 
REMARK   17  A    between atoms: CB_39  and  CG_40 
REMARK       I    between atoms: C_47  and  N_49 
REMARK   18  A    between atoms: N_49  and  CA_50 
REMARK   19  A    between atoms: CA_50  and  CB_51 
REMARK   20  A    between atoms: CA_50  and  C_58 
REMARK   21  A    between atoms: CB_51  and  CG_52 
REMARK   22  A    between atoms: CG_52  and  CD_53 
REMARK   23  A    between atoms: CD_53  and  NE_54 
REMARK       I    between atoms: C_58  and  N_60 
REMARK   24  A    between atoms: N_60  and  CA_61 
REMARK   25  A    between atoms: CA_61  and  C_66 
REMARK   26  A    between atoms: CA_61  and  CB_62 
REMARK   27  A    between atoms: CB_62  and  CG_63 
REMARK       I    between atoms: C_66  and  N_68 
REMARK   28  A    between atoms: N_68  and  CA_69 
REMARK   29  A    between atoms: CA_69  and  CB_70 
REMARK   30  A    between atoms: CA_69  and  C_77 
REMARK   31  A    between atoms: CB_70  and  CG_71 
REMARK       I    between atoms: C_77  and  N_79 
REMARK   32  A    between atoms: N_79  and  CA_80 
REMARK   33  A    between atoms: CA_80  and  CB_81 
REMARK   34  A    between atoms: CA_80  and  C_91 
REMARK   35  A    between atoms: CB_81  and  CG_82 
REMARK       I    between atoms: C_91  and  N_93 
REMARK   36  A    between atoms: N_93  and  CA_94 
REMARK   37  A    between atoms: CA_94  and  C_95 
REMARK       I    between atoms: C_95  and  N_97 
REMARK   38  A    between atoms: N_97  and  CA_98 
REMARK   39  A    between atoms: CA_98  and  C_101 
REMARK   40  A    between atoms: CA_98  and  CB_99 
REMARK       I    between atoms: C_101  and  N_103 
REMARK   41  A    between atoms: N_103  and  CA_104 
REMARK   42  A    between atoms: CA_104  and  C_105 
ROOT
ATOM      1  CA  ARG     6      -3.427 -13.871   9.708  1.00  0.00     0.186 C 
ENDROOT
BRANCH   1   2
ATOM      2  N   ARG     6      -4.542 -14.773   9.336  1.00  0.00    -0.229 NA
ATOM      3  C   TYR     5      -5.469 -15.171  10.218  1.00  0.00     0.275 C 
ATOM      4  O   TYR     5      -5.471 -14.788  11.389  1.00  0.00    -0.268 OA
BRANCH   3   5
ATOM      5  CA  TYR     5      -6.614 -16.046   9.684  1.00  0.00     0.191 C 
BRANCH   5   6
ATOM      6  N   TYR     5      -6.610 -17.427  10.234  1.00  0.00    -0.228 NA
ATOM      7  C   GLU     4      -5.904 -18.432   9.689  1.00  0.00     0.274 C 
ATOM      8  O   GLU     4      -5.100 -18.258   8.782  1.00  0.00    -0.268 OA
BRANCH   7   9
ATOM      9  CA  GLU     4      -5.905 -19.761  10.471  1.00  0.00     0.187 C 
BRANCH   9  10
ATOM     10  CB  GLU     4      -4.552 -20.470  10.297  1.00  0.00     0.045 C 
BRANCH  10  11
ATOM     11  CG  GLU     4      -4.299 -21.693  11.205  1.00  0.00     0.100 C 
BRANCH  11  12
ATOM     12  CD  GLU     4      -2.916 -22.321  11.044  1.00  0.00     0.185 C 
ATOM     13  OE1 GLU     4      -1.993 -21.583  10.610  1.00  0.00    -0.647 OA
ATOM     14  OE2 GLU     4      -2.876 -23.558  10.888  1.00  0.00    -0.647 OA
ENDBRANCH  11  12
ENDBRANCH  10  11
ENDBRANCH   9  10
BRANCH   9  15
ATOM     15  N   GLU     4      -6.977 -20.684  10.050  1.00  0.00    -0.229 NA
ATOM     16  C   PRO     3      -7.407 -20.934   8.819  1.00  0.00     0.272 C 
ATOM     17  O   PRO     3      -6.733 -20.717   7.810  1.00  0.00    -0.269 OA
BRANCH  16  18
ATOM     18  CA  PRO     3      -8.546 -21.951   8.718  1.00  0.00     0.165 C 
ATOM     19  N   PRO     3      -9.863 -21.376   8.371  1.00  0.00    -0.312 N 
ATOM     20  CD  PRO     3     -10.562 -22.272   7.414  1.00  0.00     0.105 C 
ATOM     21  C   ASP     2     -10.390 -20.290   8.966  1.00  0.00     0.257 C 
ATOM     22  CG  PRO     3      -9.687 -23.534   7.368  1.00  0.00     0.027 C 
ATOM     23  CB  PRO     3      -8.282 -23.013   7.654  1.00  0.00     0.034 C 
ATOM     24  O   ASP     2      -9.879 -19.833  10.000  1.00  0.00    -0.270 OA
BRANCH  21  25
ATOM     25  CA  ASP     2     -11.814 -19.828   8.582  1.00  0.00     0.195 C 
BRANCH  25  26
ATOM     26  CB  ASP     2     -12.288 -18.481   9.187  1.00  0.00     0.132 C 
BRANCH  26  27
ATOM     27  CG  ASP     2     -11.824 -17.304   8.308  1.00  0.00     0.188 C 
ATOM     28  OD2 ASP     2     -11.184 -16.402   8.905  1.00  0.00    -0.647 OA
ATOM     29  OD1 ASP     2     -12.541 -17.025   7.315  1.00  0.00    -0.647 OA
ENDBRANCH  26  27
ENDBRANCH  25  26
BRANCH  25  30
ATOM     30  N   ASP     2     -12.846 -20.768   9.051  1.00  0.00    -0.228 NA
ATOM     31  C   TYR     1     -13.964 -21.076   8.436  1.00  0.00     0.289 C 
ATOM     32  O   TYR     1     -14.318 -20.758   7.296  1.00  0.00    -0.268 OA
BRANCH  31  33
ATOM     33  CA  TYR     1     -14.888 -21.913   9.316  1.00  0.00     0.385 C 
ATOM     34  N   TYR     1     -16.158 -21.181   9.460  1.00  0.00     0.626 N 
BRANCH  33  35
ATOM     35  CB  TYR     1     -15.067 -23.265   8.631  1.00  0.00     0.075 C 
BRANCH  35  36
ATOM     36  CG  TYR     1     -13.968 -24.275   8.997  1.00  0.00    -0.019 A 
ATOM     37  CD2 TYR     1     -13.265 -24.177  10.187  1.00  0.00    -0.002 A 
ATOM     38  CE2 TYR     1     -12.376 -25.175  10.556  1.00  0.00     0.027 A 
ATOM     39  CZ  TYR     1     -12.194 -26.270   9.711  1.00  0.00     0.131 A 
ATOM     40  CE1 TYR     1     -12.868 -26.340   8.505  1.00  0.00     0.027 A 
ATOM     41  OH  TYR     1     -11.483 -27.337  10.128  1.00  0.00    -0.190 OA
ATOM     42  CD1 TYR     1     -13.757 -25.342   8.137  1.00  0.00    -0.002 A 
ENDBRANCH  35  36
ENDBRANCH  33  35
ENDBRANCH  31  33
ENDBRANCH  25  30
ENDBRANCH  21  25
ENDBRANCH  16  18
ENDBRANCH   9  15
ENDBRANCH   7   9
ENDBRANCH   5   6
BRANCH   5  43
ATOM     43  CB  TYR     5      -7.978 -15.382   9.937  1.00  0.00     0.060 C 
BRANCH  43  44
ATOM     44  CG  TYR     5      -8.127 -14.050   9.183  1.00  0.00    -0.020 A 
ATOM     45  CD2 TYR     5      -7.086 -13.557   8.406  1.00  0.00    -0.002 A 
ATOM     46  CE2 TYR     5      -7.233 -12.355   7.721  1.00  0.00     0.027 A 
ATOM     47  CZ  TYR     5      -8.420 -11.645   7.814  1.00  0.00     0.131 A 
ATOM     48  CE1 TYR     5      -9.473 -12.139   8.576  1.00  0.00     0.027 A 
ATOM     49  OH  TYR     5      -8.521 -10.413   7.268  1.00  0.00    -0.190 OA
ATOM     50  CD1 TYR     5      -9.320 -13.341   9.268  1.00  0.00    -0.002 A 
ENDBRANCH  43  44
ENDBRANCH   5  43
ENDBRANCH   3   5
ENDBRANCH   1   2
BRANCH   1  51
ATOM     51  CB  ARG     6      -3.579 -13.286  11.109  1.00  0.00     0.036 C 
BRANCH  51  52
ATOM     52  CG  ARG     6      -3.662 -11.758  11.131  1.00  0.00     0.029 C 
BRANCH  52  53
ATOM     53  CD  ARG     6      -4.871 -11.280  10.331  1.00  0.00     0.145 C 
BRANCH  53  54
ATOM     54  NE  ARG     6      -4.451 -10.475   9.172  1.00  0.00    -0.083 NA
ATOM     55  CZ  ARG     6      -5.100  -9.395   8.695  1.00  0.00     0.782 C 
ATOM     56  NH2 ARG     6      -4.677  -8.786   7.585  1.00  0.00     0.063 N 
ATOM     57  NH1 ARG     6      -6.219  -8.975   9.275  1.00  0.00     0.063 N 
ENDBRANCH  53  54
ENDBRANCH  52  53
ENDBRANCH  51  52
ENDBRANCH   1  51
BRANCH   1  58
ATOM     58  C   ARG     6      -2.065 -14.576   9.672  1.00  0.00     0.274 C 
ATOM     59  N   ASN     7      -2.081 -15.841   9.262  1.00  0.00    -0.228 NA
ATOM     60  O   ARG     6      -1.058 -13.957  10.017  1.00  0.00    -0.268 OA
BRANCH  59  61
ATOM     61  CA  ASN     7      -0.860 -16.650   9.068  1.00  0.00     0.196 C 
BRANCH  61  62
ATOM     62  C   ASN     7      -1.177 -18.158   9.042  1.00  0.00     0.275 C 
ATOM     63  N   PHE     8      -0.184 -18.981   8.672  1.00  0.00    -0.228 NA
ATOM     64  O   ASN     7      -2.125 -18.537   9.702  1.00  0.00    -0.268 OA
BRANCH  63  65
ATOM     65  CA  PHE     8      -0.267 -20.462   8.667  1.00  0.00     0.191 C 
BRANCH  65  66
ATOM     66  CB  PHE     8      -0.815 -20.908   7.304  1.00  0.00     0.060 C 
BRANCH  66  67
ATOM     67  CG  PHE     8      -1.716 -22.156   7.358  1.00  0.00    -0.020 A 
ATOM     68  CD1 PHE     8      -3.095 -22.018   7.268  1.00  0.00    -0.004 A 
ATOM     69  CE1 PHE     8      -3.915 -23.136   7.419  1.00  0.00    -0.000 A 
ATOM     70  CZ  PHE     8      -3.348 -24.380   7.643  1.00  0.00    -0.000 A 
ATOM     71  CE2 PHE     8      -1.967 -24.522   7.720  1.00  0.00    -0.000 A 
ATOM     72  CD2 PHE     8      -1.146 -23.405   7.569  1.00  0.00    -0.004 A 
ENDBRANCH  66  67
ENDBRANCH  65  66
BRANCH  65  73
ATOM     73  C   PHE     8       1.049 -21.191   9.020  1.00  0.00     0.275 C 
ATOM     74  N   TRP     9       2.021 -21.135   8.109  1.00  0.00    -0.228 NA
ATOM     75  O   PHE     8       1.101 -21.983   9.964  1.00  0.00    -0.268 OA
BRANCH  74  76
ATOM     76  CA  TRP     9       3.376 -21.683   8.367  1.00  0.00     0.191 C 
BRANCH  76  77
ATOM     77  CB  TRP     9       3.909 -21.090   9.681  1.00  0.00     0.062 C 
BRANCH  77  78
ATOM     78  CG  TRP     9       4.858 -19.911   9.468  1.00  0.00     0.001 A 
ATOM     79  CD1 TRP     9       4.500 -18.647   9.263  1.00  0.00     0.095 A 
ATOM     80  NE1 TRP     9       5.542 -17.951   8.828  1.00  0.00    -0.244 NA
ATOM     81  CE2 TRP     9       6.604 -18.740   8.759  1.00  0.00     0.081 A 
ATOM     82  CD2 TRP     9       6.208 -20.010   9.148  1.00  0.00     0.015 A 
ATOM     83  CZ2 TRP     9       7.903 -18.540   8.291  1.00  0.00     0.019 A 
ATOM     84  CE3 TRP     9       7.082 -21.084   9.062  1.00  0.00     0.001 A 
ATOM     85  CZ3 TRP     9       8.373 -20.890   8.583  1.00  0.00     0.000 A 
ATOM     86  CH2 TRP     9       8.784 -19.609   8.216  1.00  0.00     0.002 A 
ENDBRANCH  77  78
ENDBRANCH  76  77
BRANCH  76  87
ATOM     87  C   TRP     9       3.453 -23.227   8.366  1.00  0.00     0.275 C 
ATOM     88  O   TRP     9       2.433 -23.909   8.337  1.00  0.00    -0.268 OA
ATOM     89  N   GLY    10       4.675 -23.754   8.298  1.00  0.00    -0.226 NA
BRANCH  89  90
ATOM     90  CA  GLY    10       4.955 -25.215   8.243  1.00  0.00     0.218 C 
BRANCH  90  91
ATOM     91  C   GLY    10       4.634 -26.020   9.512  1.00  0.00     0.277 C 
ATOM     92  N   CYS    11       4.174 -27.252   9.297  1.00  0.00    -0.228 NA
ATOM     93  O   GLY    10       4.645 -25.480  10.612  1.00  0.00    -0.268 OA
BRANCH  92  94
ATOM     94  CA  CYS    11       3.809 -28.249  10.328  1.00  0.00     0.198 C 
BRANCH  94  95
ATOM     95  C   CYS    11       3.639 -29.615   9.634  1.00  0.00     0.275 C 
ATOM     96  O   CYS    11       4.595 -30.107   9.046  1.00  0.00    -0.268 OA
ATOM     97  N   GLY    12       2.399 -30.075   9.552  1.00  0.00    -0.225 NA
BRANCH  97  98
ATOM     98  CA  GLY    12       2.060 -31.354   8.908  1.00  0.00     0.226 C 
BRANCH  98  99
ATOM     99  C   GLY    12       0.616 -31.247   8.366  1.00  0.00     0.211 C 
ATOM    100  O1  GLY    12       0.101 -32.304   7.919  1.00  0.00    -0.646 OA
ATOM    101  O2  GLY    12       0.048 -30.141   8.440  1.00  0.00    -0.646 OA
ENDBRANCH  98  99
ENDBRANCH  97  98
ENDBRANCH  94  95
BRANCH  94 102
ATOM    102  CB  CYS    11       2.442 -27.915  10.921  1.00  0.00     0.103 C 
ATOM    103  SG  CYS    11       1.482 -26.613  10.057  1.00  0.00    -0.080 SA
ENDBRANCH  94 102
ENDBRANCH  92  94
ENDBRANCH  90  91
ENDBRANCH  89  90
ENDBRANCH  76  87
ENDBRANCH  74  76
ENDBRANCH  65  73
ENDBRANCH  63  65
ENDBRANCH  61  62
BRANCH  61 104
ATOM    104  CB  ASN     7       0.193 -16.333  10.137  1.00  0.00     0.126 C 
BRANCH 104 105
ATOM    105  CG  ASN     7       1.648 -16.618   9.718  1.00  0.00     0.276 C 
ATOM    106  ND2 ASN     7       2.277 -17.538  10.412  1.00  0.00    -0.107 N 
ATOM    107  OD1 ASN     7       2.289 -15.957   8.912  1.00  0.00    -0.269 OA
ENDBRANCH 104 105
ENDBRANCH  61 104
ENDBRANCH  59  61
ENDBRANCH   1  58
TORSDOF 42
ENDMDL
MODEL 3
REMARK VINA RESULT:      -3.5     19.488     27.409
REMARK WARNING: 32 MAX_TORS EXCEEDED!!!
REMARK  42 active torsions:
REMARK  status: ('A' for Active; 'I' for Inactive)
REMARK    1  A    between atoms: CA_2  and  CB_3 
REMARK    2  A    between atoms: CA_2  and  C_11 
REMARK    3  A    between atoms: CB_3  and  CG_4 
REMARK       I    between atoms: C_11  and  N_13 
REMARK    4  A    between atoms: N_13  and  CA_14 
REMARK    5  A    between atoms: CA_14  and  CB_15 
REMARK    6  A    between atoms: CA_14  and  C_19 
REMARK    7  A    between atoms: CB_15  and  CG_16 
REMARK       I    between atoms: C_19  and  N_21 
REMARK    8  A    between atoms: CA_22  and  C_26 
REMARK       I    between atoms: C_26  and  N_28 
REMARK    9  A    between atoms: N_28  and  CA_29 
REMARK   10  A    between atoms: CA_29  and  C_35 
REMARK   11  A    between atoms: CA_29  and  CB_30 
REMARK   12  A    between atoms: CB_30  and  CG_31 
REMARK   13  A    between atoms: CG_31  and  CD_32 
REMARK       I    between atoms: C_35  and  N_37 
REMARK   14  A    between atoms: N_37  and  CA_38 
REMARK   15  A    between atoms: CA_38  and  CB_39 
REMARK   16  A    between atoms: CA_38  and  C_47 
REMARK   17  A    between atoms: CB_39  and  CG_40 
REMARK       I    between atoms: C_47  and  N_49 
REMARK   18  A    between atoms: N_49  and  CA_50 
REMARK   19  A    between atoms: CA_50  and  CB_51 
REMARK   20  A    between atoms: CA_50  and  C_58 
REMARK   21  A    between atoms: CB_51  and  CG_52 
REMARK   22  A    between atoms: CG_52  and  CD_53 
REMARK   23  A    between atoms: CD_53  and  NE_54 
REMARK       I    between atoms: C_58  and  N_60 
REMARK   24  A    between atoms: N_60  and  CA_61 
REMARK   25  A    between atoms: CA_61  and  C_66 
REMARK   26  A    between atoms: CA_61  and  CB_62 
REMARK   27  A    between atoms: CB_62  and  CG_63 
REMARK       I    between atoms: C_66  and  N_68 
REMARK   28  A    between atoms: N_68  and  CA_69 
REMARK   29  A    between atoms: CA_69  and  CB_70 
REMARK   30  A    between atoms: CA_69  and  C_77 
REMARK   31  A    between atoms: CB_70  and  CG_71 
REMARK       I    between atoms: C_77  and  N_79 
REMARK   32  A    between atoms: N_79  and  CA_80 
REMARK   33  A    between atoms: CA_80  and  CB_81 
REMARK   34  A    between atoms: CA_80  and  C_91 
REMARK   35  A    between atoms: CB_81  and  CG_82 
REMARK       I    between atoms: C_91  and  N_93 
REMARK   36  A    between atoms: N_93  and  CA_94 
REMARK   37  A    between atoms: CA_94  and  C_95 
REMARK       I    between atoms: C_95  and  N_97 
REMARK   38  A    between atoms: N_97  and  CA_98 
REMARK   39  A    between atoms: CA_98  and  C_101 
REMARK   40  A    between atoms: CA_98  and  CB_99 
REMARK       I    between atoms: C_101  and  N_103 
REMARK   41  A    between atoms: N_103  and  CA_104 
REMARK   42  A    between atoms: CA_104  and  C_105 
ROOT
ATOM      1  CA  ARG     6      -2.045 -16.344   9.944  1.00  0.00     0.186 C 
ENDROOT
BRANCH   1   2
ATOM      2  N   ARG     6      -1.420 -17.414   9.130  1.00  0.00    -0.229 NA
ATOM      3  C   TYR     5      -0.633 -18.356   9.666  1.00  0.00     0.275 C 
ATOM      4  O   TYR     5      -0.400 -18.411  10.874  1.00  0.00    -0.268 OA
BRANCH   3   5
ATOM      5  CA  TYR     5      -0.109 -19.451   8.722  1.00  0.00     0.191 C 
BRANCH   5   6
ATOM      6  N   TYR     5       1.366 -19.623   8.774  1.00  0.00    -0.228 NA
ATOM      7  C   GLU     4       1.998 -20.229   9.792  1.00  0.00     0.274 C 
ATOM      8  O   GLU     4       1.401 -20.811  10.688  1.00  0.00    -0.268 OA
BRANCH   7   9
ATOM      9  CA  GLU     4       3.515 -20.445   9.614  1.00  0.00     0.187 C 
BRANCH   9  10
ATOM     10  CB  GLU     4       4.020 -21.472  10.640  1.00  0.00     0.045 C 
BRANCH  10  11
ATOM     11  CG  GLU     4       5.546 -21.506  10.879  1.00  0.00     0.100 C 
BRANCH  11  12
ATOM     12  CD  GLU     4       6.336 -22.245   9.799  1.00  0.00     0.185 C 
ATOM     13  OE1 GLU     4       7.359 -22.880  10.165  1.00  0.00    -0.647 OA
ATOM     14  OE2 GLU     4       6.228 -21.815   8.633  1.00  0.00    -0.647 OA
ENDBRANCH  11  12
ENDBRANCH  10  11
ENDBRANCH   9  10
BRANCH   9  15
ATOM     15  N   GLU     4       4.301 -19.205   9.763  1.00  0.00    -0.229 NA
ATOM     16  C   PRO     3       4.795 -18.427   8.807  1.00  0.00     0.272 C 
ATOM     17  O   PRO     3       4.361 -18.414   7.654  1.00  0.00    -0.269 OA
BRANCH  16  18
ATOM     18  CA  PRO     3       5.572 -17.204   9.297  1.00  0.00     0.165 C 
ATOM     19  N   PRO     3       6.887 -17.003   8.650  1.00  0.00    -0.312 N 
ATOM     20  CD  PRO     3       7.096 -15.556   8.385  1.00  0.00     0.105 C 
ATOM     21  C   ASP     2       7.799 -17.977   8.484  1.00  0.00     0.257 C 
ATOM     22  CG  PRO     3       5.929 -14.865   9.107  1.00  0.00     0.027 C 
ATOM     23  CB  PRO     3       4.810 -15.901   9.063  1.00  0.00     0.034 C 
ATOM     24  O   ASP     2       7.667 -19.065   9.065  1.00  0.00    -0.270 OA
BRANCH  21  25
ATOM     25  CA  ASP     2       9.176 -17.633   7.871  1.00  0.00     0.195 C 
BRANCH  25  26
ATOM     26  CB  ASP     2      10.053 -18.834   7.431  1.00  0.00     0.132 C 
BRANCH  26  27
ATOM     27  CG  ASP     2      11.094 -19.165   8.516  1.00  0.00     0.188 C 
ATOM     28  OD2 ASP     2      12.285 -18.879   8.230  1.00  0.00    -0.647 OA
ATOM     29  OD1 ASP     2      10.837 -20.140   9.266  1.00  0.00    -0.647 OA
ENDBRANCH  26  27
ENDBRANCH  25  26
BRANCH  25  30
ATOM     30  N   ASP     2      10.050 -16.935   8.830  1.00  0.00    -0.228 NA
ATOM     31  C   TYR     1      10.539 -15.724   8.707  1.00  0.00     0.289 C 
ATOM     32  O   TYR     1      10.269 -14.877   7.849  1.00  0.00    -0.268 OA
BRANCH  31  33
ATOM     33  CA  TYR     1      11.576 -15.414   9.783  1.00  0.00     0.385 C 
ATOM     34  N   TYR     1      11.229 -16.197  10.981  1.00  0.00     0.626 N 
BRANCH  33  35
ATOM     35  CB  TYR     1      12.944 -15.787   9.217  1.00  0.00     0.075 C 
BRANCH  35  36
ATOM     36  CG  TYR     1      14.041 -14.776   9.584  1.00  0.00    -0.019 A 
ATOM     37  CD2 TYR     1      15.056 -14.456   8.695  1.00  0.00    -0.002 A 
ATOM     38  CE2 TYR     1      15.954 -13.443   8.996  1.00  0.00     0.027 A 
ATOM     39  CZ  TYR     1      15.826 -12.758  10.204  1.00  0.00     0.131 A 
ATOM     40  CE1 TYR     1      14.837 -13.110  11.104  1.00  0.00     0.027 A 
ATOM     41  OH  TYR     1      16.562 -11.653  10.437  1.00  0.00    -0.190 OA
ATOM     42  CD1 TYR     1      13.939 -14.123  10.803  1.00  0.00    -0.002 A 
ENDBRANCH  35  36
ENDBRANCH  33  35
ENDBRANCH  31  33
ENDBRANCH  25  30
ENDBRANCH  21  25
ENDBRANCH  16  18
ENDBRANCH   9  15
ENDBRANCH   7   9
ENDBRANCH   5   6
BRANCH   5  43
ATOM     43  CB  TYR     5      -0.807 -20.793   8.998  1.00  0.00     0.060 C 
BRANCH  43  44
ATOM     44  CG  TYR     5      -2.275 -20.794   8.538  1.00  0.00    -0.020 A 
ATOM     45  CD2 TYR     5      -2.855 -19.641   8.026  1.00  0.00    -0.002 A 
ATOM     46  CE2 TYR     5      -4.182 -19.653   7.606  1.00  0.00     0.027 A 
ATOM     47  CZ  TYR     5      -4.928 -20.818   7.698  1.00  0.00     0.131 A 
ATOM     48  CE1 TYR     5      -4.349 -21.981   8.193  1.00  0.00     0.027 A 
ATOM     49  OH  TYR     5      -6.250 -20.803   7.424  1.00  0.00    -0.190 OA
ATOM     50  CD1 TYR     5      -3.021 -21.964   8.622  1.00  0.00    -0.002 A 
ENDBRANCH  43  44
ENDBRANCH   5  43
ENDBRANCH   3   5
ENDBRANCH   1   2
BRANCH   1  51
ATOM     51  CB  ARG     6      -1.250 -15.042   9.923  1.00  0.00     0.036 C 
BRANCH  51  52
ATOM     52  CG  ARG     6      -1.061 -14.415  11.306  1.00  0.00     0.029 C 
BRANCH  52  53
ATOM     53  CD  ARG     6      -1.761 -13.061  11.376  1.00  0.00     0.145 C 
BRANCH  53  54
ATOM     54  NE  ARG     6      -3.224 -13.224  11.392  1.00  0.00    -0.083 NA
ATOM     55  CZ  ARG     6      -4.118 -12.300  10.992  1.00  0.00     0.782 C 
ATOM     56  NH2 ARG     6      -5.428 -12.519  11.128  1.00  0.00     0.063 N 
ATOM     57  NH1 ARG     6      -3.706 -11.122  10.537  1.00  0.00     0.063 N 
ENDBRANCH  53  54
ENDBRANCH  52  53
ENDBRANCH  51  52
ENDBRANCH   1  51
BRANCH   1  58
ATOM     58  C   ARG     6      -3.463 -16.000   9.472  1.00  0.00     0.274 C 
ATOM     59  N   ASN     7      -4.418 -16.845   9.852  1.00  0.00    -0.228 NA
ATOM     60  O   ARG     6      -3.640 -14.995   8.783  1.00  0.00    -0.268 OA
BRANCH  59  61
ATOM     61  CA  ASN     7      -5.854 -16.628   9.578  1.00  0.00     0.196 C 
BRANCH  61  62
ATOM     62  C   ASN     7      -6.727 -17.717  10.231  1.00  0.00     0.275 C 
ATOM     63  N   PHE     8      -8.035 -17.706   9.933  1.00  0.00    -0.228 NA
ATOM     64  O   ASN     7      -6.159 -18.712  10.637  1.00  0.00    -0.268 OA
BRANCH  63  65
ATOM     65  CA  PHE     8      -9.017 -18.718  10.392  1.00  0.00     0.191 C 
BRANCH  65  66
ATOM     66  CB  PHE     8     -10.192 -17.983  11.053  1.00  0.00     0.060 C 
BRANCH  66  67
ATOM     67  CG  PHE     8     -10.292 -16.489  10.692  1.00  0.00    -0.020 A 
ATOM     68  CD1 PHE     8      -9.346 -15.595  11.175  1.00  0.00    -0.004 A 
ATOM     69  CE1 PHE     8      -9.494 -14.229  10.933  1.00  0.00    -0.000 A 
ATOM     70  CZ  PHE     8     -10.576 -13.775  10.198  1.00  0.00    -0.000 A 
ATOM     71  CE2 PHE     8     -11.518 -14.670   9.702  1.00  0.00    -0.000 A 
ATOM     72  CD2 PHE     8     -11.370 -16.035   9.944  1.00  0.00    -0.004 A 
ENDBRANCH  66  67
ENDBRANCH  65  66
BRANCH  65  73
ATOM     73  C   PHE     8      -9.500 -19.700   9.301  1.00  0.00     0.275 C 
ATOM     74  N   TRP     9      -9.222 -20.990   9.499  1.00  0.00    -0.228 NA
ATOM     75  O   PHE     8      -9.886 -19.289   8.204  1.00  0.00    -0.268 OA
BRANCH  74  76
ATOM     76  CA  TRP     9      -9.732 -22.053   8.597  1.00  0.00     0.191 C 
BRANCH  76  77
ATOM     77  CB  TRP     9      -8.754 -23.239   8.626  1.00  0.00     0.062 C 
BRANCH  77  78
ATOM     78  CG  TRP     9      -7.780 -23.187   9.803  1.00  0.00     0.001 A 
ATOM     79  CD1 TRP     9      -7.689 -22.209  10.699  1.00  0.00     0.095 A 
ATOM     80  NE1 TRP     9      -6.564 -22.338  11.391  1.00  0.00    -0.244 NA
ATOM     81  CE2 TRP     9      -5.910 -23.412  10.976  1.00  0.00     0.081 A 
ATOM     82  CD2 TRP     9      -6.646 -23.980   9.948  1.00  0.00     0.015 A 
ATOM     83  CZ2 TRP     9      -4.661 -23.943  11.298  1.00  0.00     0.019 A 
ATOM     84  CE3 TRP     9      -6.150 -25.057   9.229  1.00  0.00     0.001 A 
ATOM     85  CZ3 TRP     9      -4.899 -25.579   9.540  1.00  0.00     0.000 A 
ATOM     86  CH2 TRP     9      -4.166 -25.028  10.590  1.00  0.00     0.002 A 
ENDBRANCH  77  78
ENDBRANCH  76  77
BRANCH  76  87
ATOM     87  C   TRP     9     -11.181 -22.502   8.890  1.00  0.00     0.275 C 
ATOM     88  O   TRP     9     -11.949 -22.789   7.977  1.00  0.00    -0.268 OA
ATOM     89  N   GLY    10     -11.502 -22.653  10.175  1.00  0.00    -0.226 NA
BRANCH  89  90
ATOM     90  CA  GLY    10     -12.831 -23.118  10.658  1.00  0.00     0.218 C 
BRANCH  90  91
ATOM     91  C   GLY    10     -13.633 -24.009   9.695  1.00  0.00     0.277 C 
ATOM     92  N   CYS    11     -14.884 -23.610   9.469  1.00  0.00    -0.228 NA
ATOM     93  O   GLY    10     -13.185 -25.088   9.324  1.00  0.00    -0.268 OA
BRANCH  92  94
ATOM     94  CA  CYS    11     -15.869 -24.259   8.574  1.00  0.00     0.198 C 
BRANCH  94  95
ATOM     95  C   CYS    11     -16.979 -23.236   8.262  1.00  0.00     0.275 C 
ATOM     96  O   CYS    11     -18.147 -23.609   8.253  1.00  0.00    -0.268 OA
ATOM     97  N   GLY    12     -16.574 -22.052   7.826  1.00  0.00    -0.225 NA
BRANCH  97  98
ATOM     98  CA  GLY    12     -17.502 -20.969   7.469  1.00  0.00     0.226 C 
BRANCH  98  99
ATOM     99  C   GLY    12     -16.879 -19.632   7.933  1.00  0.00     0.211 C 
ATOM    100  O1  GLY    12     -15.629 -19.609   8.067  1.00  0.00    -0.646 OA
ATOM    101  O2  GLY    12     -17.643 -18.665   8.109  1.00  0.00    -0.646 OA
ENDBRANCH  98  99
ENDBRANCH  97  98
ENDBRANCH  94  95
BRANCH  94 102
ATOM    102  CB  CYS    11     -16.561 -25.409   9.301  1.00  0.00     0.103 C 
ATOM    103  SG  CYS    11     -17.160 -26.787   8.249  1.00  0.00    -0.080 SA
ENDBRANCH  94 102
ENDBRANCH  92  94
ENDBRANCH  90  91
ENDBRANCH  89  90
ENDBRANCH  76  87
ENDBRANCH  74  76
ENDBRANCH  65  73
ENDBRANCH  63  65
ENDBRANCH  61  62
BRANCH  61 104
ATOM    104  CB  ASN     7      -6.126 -16.542   8.070  1.00  0.00     0.126 C 
BRANCH 104 105
ATOM    105  CG  ASN     7      -7.101 -15.426   7.651  1.00  0.00     0.276 C 
ATOM    106  ND2 ASN     7      -6.584 -14.225   7.526  1.00  0.00    -0.107 N 
ATOM    107  OD1 ASN     7      -8.318 -15.546   7.582  1.00  0.00    -0.269 OA
ENDBRANCH 104 105
ENDBRANCH  61 104
ENDBRANCH  59  61
ENDBRANCH   1  58
TORSDOF 42
ENDMDL
MODEL 4
REMARK VINA RESULT:      -3.4     20.711     31.707
REMARK WARNING: 32 MAX_TORS EXCEEDED!!!
REMARK  42 active torsions:
REMARK  status: ('A' for Active; 'I' for Inactive)
REMARK    1  A    between atoms: CA_2  and  CB_3 
REMARK    2  A    between atoms: CA_2  and  C_11 
REMARK    3  A    between atoms: CB_3  and  CG_4 
REMARK       I    between atoms: C_11  and  N_13 
REMARK    4  A    between atoms: N_13  and  CA_14 
REMARK    5  A    between atoms: CA_14  and  CB_15 
REMARK    6  A    between atoms: CA_14  and  C_19 
REMARK    7  A    between atoms: CB_15  and  CG_16 
REMARK       I    between atoms: C_19  and  N_21 
REMARK    8  A    between atoms: CA_22  and  C_26 
REMARK       I    between atoms: C_26  and  N_28 
REMARK    9  A    between atoms: N_28  and  CA_29 
REMARK   10  A    between atoms: CA_29  and  C_35 
REMARK   11  A    between atoms: CA_29  and  CB_30 
REMARK   12  A    between atoms: CB_30  and  CG_31 
REMARK   13  A    between atoms: CG_31  and  CD_32 
REMARK       I    between atoms: C_35  and  N_37 
REMARK   14  A    between atoms: N_37  and  CA_38 
REMARK   15  A    between atoms: CA_38  and  CB_39 
REMARK   16  A    between atoms: CA_38  and  C_47 
REMARK   17  A    between atoms: CB_39  and  CG_40 
REMARK       I    between atoms: C_47  and  N_49 
REMARK   18  A    between atoms: N_49  and  CA_50 
REMARK   19  A    between atoms: CA_50  and  CB_51 
REMARK   20  A    between atoms: CA_50  and  C_58 
REMARK   21  A    between atoms: CB_51  and  CG_52 
REMARK   22  A    between atoms: CG_52  and  CD_53 
REMARK   23  A    between atoms: CD_53  and  NE_54 
REMARK       I    between atoms: C_58  and  N_60 
REMARK   24  A    between atoms: N_60  and  CA_61 
REMARK   25  A    between atoms: CA_61  and  C_66 
REMARK   26  A    between atoms: CA_61  and  CB_62 
REMARK   27  A    between atoms: CB_62  and  CG_63 
REMARK       I    between atoms: C_66  and  N_68 
REMARK   28  A    between atoms: N_68  and  CA_69 
REMARK   29  A    between atoms: CA_69  and  CB_70 
REMARK   30  A    between atoms: CA_69  and  C_77 
REMARK   31  A    between atoms: CB_70  and  CG_71 
REMARK       I    between atoms: C_77  and  N_79 
REMARK   32  A    between atoms: N_79  and  CA_80 
REMARK   33  A    between atoms: CA_80  and  CB_81 
REMARK   34  A    between atoms: CA_80  and  C_91 
REMARK   35  A    between atoms: CB_81  and  CG_82 
REMARK       I    between atoms: C_91  and  N_93 
REMARK   36  A    between atoms: N_93  and  CA_94 
REMARK   37  A    between atoms: CA_94  and  C_95 
REMARK       I    between atoms: C_95  and  N_97 
REMARK   38  A    between atoms: N_97  and  CA_98 
REMARK   39  A    between atoms: CA_98  and  C_101 
REMARK   40  A    between atoms: CA_98  and  CB_99 
REMARK       I    between atoms: C_101  and  N_103 
REMARK   41  A    between atoms: N_103  and  CA_104 
REMARK   42  A    between atoms: CA_104  and  C_105 
ROOT
ATOM      1  CA  ARG     6      -3.454 -13.899   9.643  1.00  0.00     0.186 C 
ENDROOT
BRANCH   1   2
ATOM      2  N   ARG     6      -4.554 -14.823   9.283  1.00  0.00    -0.229 NA
ATOM      3  C   TYR     5      -5.481 -15.216  10.167  1.00  0.00     0.275 C 
ATOM      4  O   TYR     5      -5.495 -14.811  11.330  1.00  0.00    -0.268 OA
BRANCH   3   5
ATOM      5  CA  TYR     5      -6.611 -16.117   9.644  1.00  0.00     0.191 C 
BRANCH   5   6
ATOM      6  N   TYR     5      -6.559 -17.503  10.178  1.00  0.00    -0.228 NA
ATOM      7  C   GLU     4      -5.826 -18.479   9.618  1.00  0.00     0.274 C 
ATOM      8  O   GLU     4      -5.034 -18.270   8.708  1.00  0.00    -0.268 OA
BRANCH   7   9
ATOM      9  CA  GLU     4      -5.779 -19.816  10.385  1.00  0.00     0.187 C 
BRANCH   9  10
ATOM     10  CB  GLU     4      -4.410 -20.485  10.183  1.00  0.00     0.045 C 
BRANCH  10  11
ATOM     11  CG  GLU     4      -4.110 -21.710  11.076  1.00  0.00     0.100 C 
BRANCH  11  12
ATOM     12  CD  GLU     4      -2.700 -22.276  10.914  1.00  0.00     0.185 C 
ATOM     13  OE1 GLU     4      -2.584 -23.528  10.849  1.00  0.00    -0.647 OA
ATOM     14  OE2 GLU     4      -1.759 -21.563  11.318  1.00  0.00    -0.647 OA
ENDBRANCH  11  12
ENDBRANCH  10  11
ENDBRANCH   9  10
BRANCH   9  15
ATOM     15  N   GLU     4      -6.832 -20.763   9.970  1.00  0.00    -0.229 NA
ATOM     16  C   PRO     3      -7.176 -21.118   8.738  1.00  0.00     0.272 C 
ATOM     17  O   PRO     3      -6.429 -20.998   7.766  1.00  0.00    -0.269 OA
BRANCH  16  18
ATOM     18  CA  PRO     3      -8.321 -22.129   8.645  1.00  0.00     0.165 C 
ATOM     19  N   PRO     3      -9.659 -21.536   8.437  1.00  0.00    -0.312 N 
ATOM     20  CD  PRO     3     -10.426 -22.361   7.470  1.00  0.00     0.105 C 
ATOM     21  C   ASP     2     -10.140 -20.499   9.147  1.00  0.00     0.257 C 
ATOM     22  CG  PRO     3      -9.558 -23.613   7.267  1.00  0.00     0.027 C 
ATOM     23  CB  PRO     3      -8.135 -23.109   7.489  1.00  0.00     0.034 C 
ATOM     24  O   ASP     2      -9.556 -20.117  10.173  1.00  0.00    -0.270 OA
BRANCH  21  25
ATOM     25  CA  ASP     2     -11.587 -20.016   8.902  1.00  0.00     0.195 C 
BRANCH  25  26
ATOM     26  CB  ASP     2     -11.899 -18.548   9.293  1.00  0.00     0.132 C 
BRANCH  26  27
ATOM     27  CG  ASP     2     -13.417 -18.290   9.246  1.00  0.00     0.188 C 
ATOM     28  OD2 ASP     2     -13.839 -17.734   8.200  1.00  0.00    -0.647 OA
ATOM     29  OD1 ASP     2     -13.991 -18.096  10.346  1.00  0.00    -0.647 OA
ENDBRANCH  26  27
ENDBRANCH  25  26
BRANCH  25  30
ATOM     30  N   ASP     2     -12.566 -20.773   9.700  1.00  0.00    -0.228 NA
ATOM     31  C   TYR     1     -13.493 -21.582   9.243  1.00  0.00     0.289 C 
ATOM     32  O   TYR     1     -13.652 -21.981   8.085  1.00  0.00    -0.268 OA
BRANCH  31  33
ATOM     33  CA  TYR     1     -14.461 -22.019  10.339  1.00  0.00     0.385 C 
ATOM     34  N   TYR     1     -14.511 -20.949  11.349  1.00  0.00     0.626 N 
BRANCH  33  35
ATOM     35  CB  TYR     1     -15.816 -22.263   9.679  1.00  0.00     0.075 C 
BRANCH  35  36
ATOM     36  CG  TYR     1     -16.765 -21.060   9.793  1.00  0.00    -0.019 A 
ATOM     37  CD2 TYR     1     -17.782 -21.029  10.735  1.00  0.00    -0.002 A 
ATOM     38  CE2 TYR     1     -18.537 -19.879  10.908  1.00  0.00     0.027 A 
ATOM     39  CZ  TYR     1     -18.264 -18.761  10.120  1.00  0.00     0.131 A 
ATOM     40  CE1 TYR     1     -17.276 -18.813   9.154  1.00  0.00     0.027 A 
ATOM     41  OH  TYR     1     -18.852 -17.579  10.394  1.00  0.00    -0.190 OA
ATOM     42  CD1 TYR     1     -16.521 -19.963   8.981  1.00  0.00    -0.002 A 
ENDBRANCH  35  36
ENDBRANCH  33  35
ENDBRANCH  31  33
ENDBRANCH  25  30
ENDBRANCH  21  25
ENDBRANCH  16  18
ENDBRANCH   9  15
ENDBRANCH   7   9
ENDBRANCH   5   6
BRANCH   5  43
ATOM     43  CB  TYR     5      -7.988 -15.493   9.928  1.00  0.00     0.060 C 
BRANCH  43  44
ATOM     44  CG  TYR     5      -8.194 -14.167   9.176  1.00  0.00    -0.020 A 
ATOM     45  CD2 TYR     5      -7.201 -13.664   8.346  1.00  0.00    -0.002 A 
ATOM     46  CE2 TYR     5      -7.400 -12.467   7.664  1.00  0.00     0.027 A 
ATOM     47  CZ  TYR     5      -8.591 -11.774   7.813  1.00  0.00     0.131 A 
ATOM     48  CE1 TYR     5      -9.597 -12.280   8.629  1.00  0.00     0.027 A 
ATOM     49  OH  TYR     5      -8.737 -10.547   7.268  1.00  0.00    -0.190 OA
ATOM     50  CD1 TYR     5      -9.392 -13.475   9.318  1.00  0.00    -0.002 A 
ENDBRANCH  43  44
ENDBRANCH   5  43
ENDBRANCH   3   5
ENDBRANCH   1   2
BRANCH   1  51
ATOM     51  CB  ARG     6      -3.634 -13.270  11.021  1.00  0.00     0.036 C 
BRANCH  51  52
ATOM     52  CG  ARG     6      -4.157 -11.832  10.977  1.00  0.00     0.029 C 
BRANCH  52  53
ATOM     53  CD  ARG     6      -4.327 -11.373   9.532  1.00  0.00     0.145 C 
BRANCH  53  54
ATOM     54  NE  ARG     6      -4.396  -9.904   9.449  1.00  0.00    -0.083 NA
ATOM     55  CZ  ARG     6      -4.832  -9.201   8.387  1.00  0.00     0.782 C 
ATOM     56  NH2 ARG     6      -4.774  -7.868   8.387  1.00  0.00     0.063 N 
ATOM     57  NH1 ARG     6      -5.244  -9.828   7.290  1.00  0.00     0.063 N 
ENDBRANCH  53  54
ENDBRANCH  52  53
ENDBRANCH  51  52
ENDBRANCH   1  51
BRANCH   1  58
ATOM     58  C   ARG     6      -2.085 -14.592   9.653  1.00  0.00     0.274 C 
ATOM     59  N   ASN     7      -2.078 -15.861   9.254  1.00  0.00    -0.228 NA
ATOM     60  O   ARG     6      -1.094 -13.960  10.021  1.00  0.00    -0.268 OA
BRANCH  59  61
ATOM     61  CA  ASN     7      -0.845 -16.660   9.104  1.00  0.00     0.196 C 
BRANCH  61  62
ATOM     62  C   ASN     7      -1.150 -18.170   9.052  1.00  0.00     0.275 C 
ATOM     63  N   PHE     8      -0.148 -18.980   8.681  1.00  0.00    -0.228 NA
ATOM     64  O   ASN     7      -2.103 -18.565   9.696  1.00  0.00    -0.268 OA
BRANCH  63  65
ATOM     65  CA  PHE     8      -0.220 -20.461   8.653  1.00  0.00     0.191 C 
BRANCH  65  66
ATOM     66  CB  PHE     8      -0.722 -20.892   7.268  1.00  0.00     0.060 C 
BRANCH  66  67
ATOM     67  CG  PHE     8      -1.588 -22.165   7.272  1.00  0.00    -0.020 A 
ATOM     68  CD1 PHE     8      -2.972 -22.061   7.299  1.00  0.00    -0.004 A 
ATOM     69  CE1 PHE     8      -3.753 -23.212   7.406  1.00  0.00    -0.000 A 
ATOM     70  CZ  PHE     8      -3.143 -24.454   7.470  1.00  0.00    -0.000 A 
ATOM     71  CE2 PHE     8      -1.757 -24.562   7.429  1.00  0.00    -0.000 A 
ATOM     72  CD2 PHE     8      -0.976 -23.411   7.322  1.00  0.00    -0.004 A 
ENDBRANCH  66  67
ENDBRANCH  65  66
BRANCH  65  73
ATOM     73  C   PHE     8       1.089 -21.186   9.037  1.00  0.00     0.275 C 
ATOM     74  N   TRP     9       2.083 -21.128   8.148  1.00  0.00    -0.228 NA
ATOM     75  O   PHE     8       1.122 -21.977   9.983  1.00  0.00    -0.268 OA
BRANCH  74  76
ATOM     76  CA  TRP     9       3.432 -21.672   8.439  1.00  0.00     0.191 C 
BRANCH  76  77
ATOM     77  CB  TRP     9       3.899 -21.139   9.803  1.00  0.00     0.062 C 
BRANCH  77  78
ATOM     78  CG  TRP     9       4.802 -19.911   9.693  1.00  0.00     0.001 A 
ATOM     79  CD1 TRP     9       4.636 -18.893   8.854  1.00  0.00     0.095 A 
ATOM     80  NE1 TRP     9       5.741 -18.159   8.816  1.00  0.00    -0.244 NA
ATOM     81  CE2 TRP     9       6.642 -18.671   9.641  1.00  0.00     0.081 A 
ATOM     82  CD2 TRP     9       6.087 -19.804  10.215  1.00  0.00     0.015 A 
ATOM     83  CZ2 TRP     9       7.972 -18.349   9.909  1.00  0.00     0.019 A 
ATOM     84  CE3 TRP     9       6.842 -20.627  11.038  1.00  0.00     0.001 A 
ATOM     85  CZ3 TRP     9       8.173 -20.314  11.296  1.00  0.00     0.000 A 
ATOM     86  CH2 TRP     9       8.727 -19.162  10.742  1.00  0.00     0.002 A 
ENDBRANCH  77  78
ENDBRANCH  76  77
BRANCH  76  87
ATOM     87  C   TRP     9       3.532 -23.213   8.364  1.00  0.00     0.275 C 
ATOM     88  O   TRP     9       2.528 -23.903   8.217  1.00  0.00    -0.268 OA
ATOM     89  N   GLY    10       4.763 -23.723   8.368  1.00  0.00    -0.226 NA
BRANCH  89  90
ATOM     90  CA  GLY    10       5.068 -25.176   8.260  1.00  0.00     0.218 C 
BRANCH  90  91
ATOM     91  C   GLY    10       5.284 -25.928   9.584  1.00  0.00     0.277 C 
ATOM     92  N   CYS    11       5.037 -27.236   9.535  1.00  0.00    -0.228 NA
ATOM     93  O   GLY    10       5.495 -25.313  10.623  1.00  0.00    -0.268 OA
BRANCH  92  94
ATOM     94  CA  CYS    11       5.183 -28.203  10.647  1.00  0.00     0.198 C 
BRANCH  94  95
ATOM     95  C   CYS    11       6.397 -29.102  10.343  1.00  0.00     0.275 C 
ATOM     96  O   CYS    11       7.021 -28.928   9.302  1.00  0.00    -0.268 OA
ATOM     97  N   GLY    12       6.565 -30.144  11.144  1.00  0.00    -0.225 NA
BRANCH  97  98
ATOM     98  CA  GLY    12       7.663 -31.110  10.984  1.00  0.00     0.226 C 
BRANCH  98  99
ATOM     99  C   GLY    12       7.080 -32.395  10.350  1.00  0.00     0.211 C 
ATOM    100  O1  GLY    12       7.426 -33.486  10.869  1.00  0.00    -0.646 OA
ATOM    101  O2  GLY    12       6.286 -32.264   9.401  1.00  0.00    -0.646 OA
ENDBRANCH  98  99
ENDBRANCH  97  98
ENDBRANCH  94  95
BRANCH  94 102
ATOM    102  CB  CYS    11       3.977 -29.139  10.690  1.00  0.00     0.103 C 
ATOM    103  SG  CYS    11       2.329 -28.339  10.603  1.00  0.00    -0.080 SA
ENDBRANCH  94 102
ENDBRANCH  92  94
ENDBRANCH  90  91
ENDBRANCH  89  90
ENDBRANCH  76  87
ENDBRANCH  74  76
ENDBRANCH  65  73
ENDBRANCH  63  65
ENDBRANCH  61  62
BRANCH  61 104
ATOM    104  CB  ASN     7       0.162 -16.345  10.217  1.00  0.00     0.126 C 
BRANCH 104 105
ATOM    105  CG  ASN     7       1.620 -16.725   9.898  1.00  0.00     0.276 C 
ATOM    106  ND2 ASN     7       2.052 -16.398   8.702  1.00  0.00    -0.107 N 
ATOM    107  OD1 ASN     7       2.333 -17.428  10.602  1.00  0.00    -0.269 OA
ENDBRANCH 104 105
ENDBRANCH  61 104
ENDBRANCH  59  61
ENDBRANCH   1  58
TORSDOF 42
ENDMDL
MODEL 5
REMARK VINA RESULT:      -3.3     21.140     31.952
REMARK WARNING: 32 MAX_TORS EXCEEDED!!!
REMARK  42 active torsions:
REMARK  status: ('A' for Active; 'I' for Inactive)
REMARK    1  A    between atoms: CA_2  and  CB_3 
REMARK    2  A    between atoms: CA_2  and  C_11 
REMARK    3  A    between atoms: CB_3  and  CG_4 
REMARK       I    between atoms: C_11  and  N_13 
REMARK    4  A    between atoms: N_13  and  CA_14 
REMARK    5  A    between atoms: CA_14  and  CB_15 
REMARK    6  A    between atoms: CA_14  and  C_19 
REMARK    7  A    between atoms: CB_15  and  CG_16 
REMARK       I    between atoms: C_19  and  N_21 
REMARK    8  A    between atoms: CA_22  and  C_26 
REMARK       I    between atoms: C_26  and  N_28 
REMARK    9  A    between atoms: N_28  and  CA_29 
REMARK   10  A    between atoms: CA_29  and  C_35 
REMARK   11  A    between atoms: CA_29  and  CB_30 
REMARK   12  A    between atoms: CB_30  and  CG_31 
REMARK   13  A    between atoms: CG_31  and  CD_32 
REMARK       I    between atoms: C_35  and  N_37 
REMARK   14  A    between atoms: N_37  and  CA_38 
REMARK   15  A    between atoms: CA_38  and  CB_39 
REMARK   16  A    between atoms: CA_38  and  C_47 
REMARK   17  A    between atoms: CB_39  and  CG_40 
REMARK       I    between atoms: C_47  and  N_49 
REMARK   18  A    between atoms: N_49  and  CA_50 
REMARK   19  A    between atoms: CA_50  and  CB_51 
REMARK   20  A    between atoms: CA_50  and  C_58 
REMARK   21  A    between atoms: CB_51  and  CG_52 
REMARK   22  A    between atoms: CG_52  and  CD_53 
REMARK   23  A    between atoms: CD_53  and  NE_54 
REMARK       I    between atoms: C_58  and  N_60 
REMARK   24  A    between atoms: N_60  and  CA_61 
REMARK   25  A    between atoms: CA_61  and  C_66 
REMARK   26  A    between atoms: CA_61  and  CB_62 
REMARK   27  A    between atoms: CB_62  and  CG_63 
REMARK       I    between atoms: C_66  and  N_68 
REMARK   28  A    between atoms: N_68  and  CA_69 
REMARK   29  A    between atoms: CA_69  and  CB_70 
REMARK   30  A    between atoms: CA_69  and  C_77 
REMARK   31  A    between atoms: CB_70  and  CG_71 
REMARK       I    between atoms: C_77  and  N_79 
REMARK   32  A    between atoms: N_79  and  CA_80 
REMARK   33  A    between atoms: CA_80  and  CB_81 
REMARK   34  A    between atoms: CA_80  and  C_91 
REMARK   35  A    between atoms: CB_81  and  CG_82 
REMARK       I    between atoms: C_91  and  N_93 
REMARK   36  A    between atoms: N_93  and  CA_94 
REMARK   37  A    between atoms: CA_94  and  C_95 
REMARK       I    between atoms: C_95  and  N_97 
REMARK   38  A    between atoms: N_97  and  CA_98 
REMARK   39  A    between atoms: CA_98  and  C_101 
REMARK   40  A    between atoms: CA_98  and  CB_99 
REMARK       I    between atoms: C_101  and  N_103 
REMARK   41  A    between atoms: N_103  and  CA_104 
REMARK   42  A    between atoms: CA_104  and  C_105 
ROOT
ATOM      1  CA  ARG     6      -3.429 -13.889   9.645  1.00  0.00     0.186 C 
ENDROOT
BRANCH   1   2
ATOM      2  N   ARG     6      -4.566 -14.766   9.281  1.00  0.00    -0.229 NA
ATOM      3  C   TYR     5      -5.508 -15.123  10.164  1.00  0.00     0.275 C 
ATOM      4  O   TYR     5      -5.505 -14.722  11.328  1.00  0.00    -0.268 OA
BRANCH   3   5
ATOM      5  CA  TYR     5      -6.674 -15.976   9.638  1.00  0.00     0.191 C 
BRANCH   5   6
ATOM      6  N   TYR     5      -6.687 -17.360  10.178  1.00  0.00    -0.228 NA
ATOM      7  C   GLU     4      -6.006 -18.373   9.616  1.00  0.00     0.274 C 
ATOM      8  O   GLU     4      -5.212 -18.207   8.699  1.00  0.00    -0.268 OA
BRANCH   7   9
ATOM      9  CA  GLU     4      -6.020 -19.708  10.388  1.00  0.00     0.187 C 
BRANCH   9  10
ATOM     10  CB  GLU     4      -4.684 -20.441  10.186  1.00  0.00     0.045 C 
BRANCH  10  11
ATOM     11  CG  GLU     4      -4.437 -21.672  11.086  1.00  0.00     0.100 C 
BRANCH  11  12
ATOM     12  CD  GLU     4      -3.071 -22.329  10.892  1.00  0.00     0.185 C 
ATOM     13  OE1 GLU     4      -3.019 -23.585  10.959  1.00  0.00    -0.647 OA
ATOM     14  OE2 GLU     4      -2.071 -21.629  11.149  1.00  0.00    -0.647 OA
ENDBRANCH  11  12
ENDBRANCH  10  11
ENDBRANCH   9  10
BRANCH   9  15
ATOM     15  N   GLU     4      -7.117 -20.606   9.979  1.00  0.00    -0.229 NA
ATOM     16  C   PRO     3      -7.591 -20.817   8.757  1.00  0.00     0.272 C 
ATOM     17  O   PRO     3      -6.950 -20.580   7.732  1.00  0.00    -0.269 OA
BRANCH  16  18
ATOM     18  CA  PRO     3      -8.745 -21.818   8.669  1.00  0.00     0.165 C 
ATOM     19  N   PRO     3     -10.093 -21.211   8.627  1.00  0.00    -0.312 N 
ATOM     20  CD  PRO     3     -10.942 -21.946   7.655  1.00  0.00     0.105 C 
ATOM     21  C   ASP     2     -10.507 -20.243   9.465  1.00  0.00     0.257 C 
ATOM     22  CG  PRO     3     -10.101 -23.173   7.269  1.00  0.00     0.027 C 
ATOM     23  CB  PRO     3      -8.662 -22.688   7.417  1.00  0.00     0.034 C 
ATOM     24  O   ASP     2      -9.838 -19.955  10.469  1.00  0.00    -0.270 OA
BRANCH  21  25
ATOM     25  CA  ASP     2     -11.967 -19.743   9.386  1.00  0.00     0.195 C 
BRANCH  25  26
ATOM     26  CB  ASP     2     -12.328 -18.526  10.277  1.00  0.00     0.132 C 
BRANCH  26  27
ATOM     27  CG  ASP     2     -12.460 -17.253   9.420  1.00  0.00     0.188 C 
ATOM     28  OD2 ASP     2     -11.376 -16.701   9.099  1.00  0.00    -0.647 OA
ATOM     29  OD1 ASP     2     -13.498 -16.566   9.587  1.00  0.00    -0.647 OA
ENDBRANCH  26  27
ENDBRANCH  25  26
BRANCH  25  30
ATOM     30  N   ASP     2     -12.928 -20.763   9.837  1.00  0.00    -0.228 NA
ATOM     31  C   TYR     1     -14.132 -20.973   9.359  1.00  0.00     0.289 C 
ATOM     32  O   TYR     1     -14.654 -20.465   8.362  1.00  0.00    -0.268 OA
BRANCH  31  33
ATOM     33  CA  TYR     1     -14.921 -21.963  10.212  1.00  0.00     0.385 C 
ATOM     34  N   TYR     1     -16.137 -22.330   9.467  1.00  0.00     0.626 N 
BRANCH  33  35
ATOM     35  CB  TYR     1     -14.012 -23.162  10.475  1.00  0.00     0.075 C 
BRANCH  35  36
ATOM     36  CG  TYR     1     -14.265 -24.331   9.510  1.00  0.00    -0.019 A 
ATOM     37  CD2 TYR     1     -13.612 -24.416   8.291  1.00  0.00    -0.002 A 
ATOM     38  CE2 TYR     1     -13.754 -25.546   7.500  1.00  0.00     0.027 A 
ATOM     39  CZ  TYR     1     -14.566 -26.589   7.945  1.00  0.00     0.131 A 
ATOM     40  CE1 TYR     1     -15.248 -26.480   9.144  1.00  0.00     0.027 A 
ATOM     41  OH  TYR     1     -14.574 -27.768   7.291  1.00  0.00    -0.190 OA
ATOM     42  CD1 TYR     1     -15.105 -25.349   9.934  1.00  0.00    -0.002 A 
ENDBRANCH  35  36
ENDBRANCH  33  35
ENDBRANCH  31  33
ENDBRANCH  25  30
ENDBRANCH  21  25
ENDBRANCH  16  18
ENDBRANCH   9  15
ENDBRANCH   7   9
ENDBRANCH   5   6
BRANCH   5  43
ATOM     43  CB  TYR     5      -8.023 -15.290   9.912  1.00  0.00     0.060 C 
BRANCH  43  44
ATOM     44  CG  TYR     5      -8.159 -13.950   9.169  1.00  0.00    -0.020 A 
ATOM     45  CD2 TYR     5      -7.122 -13.473   8.378  1.00  0.00    -0.002 A 
ATOM     46  CE2 TYR     5      -7.257 -12.263   7.703  1.00  0.00     0.027 A 
ATOM     47  CZ  TYR     5      -8.429 -11.531   7.820  1.00  0.00     0.131 A 
ATOM     48  CE1 TYR     5      -9.478 -12.011   8.595  1.00  0.00     0.027 A 
ATOM     49  OH  TYR     5      -8.515 -10.295   7.283  1.00  0.00    -0.190 OA
ATOM     50  CD1 TYR     5      -9.337 -13.220   9.278  1.00  0.00    -0.002 A 
ENDBRANCH  43  44
ENDBRANCH   5  43
ENDBRANCH   3   5
ENDBRANCH   1   2
BRANCH   1  51
ATOM     51  CB  ARG     6      -3.578 -13.266  11.029  1.00  0.00     0.036 C 
BRANCH  51  52
ATOM     52  CG  ARG     6      -3.749 -11.745  11.004  1.00  0.00     0.029 C 
BRANCH  52  53
ATOM     53  CD  ARG     6      -4.993 -11.363  10.206  1.00  0.00     0.145 C 
BRANCH  53  54
ATOM     54  NE  ARG     6      -4.804 -10.075   9.518  1.00  0.00    -0.083 NA
ATOM     55  CZ  ARG     6      -5.721  -9.094   9.431  1.00  0.00     0.782 C 
ATOM     56  NH2 ARG     6      -5.476  -7.998   8.710  1.00  0.00     0.063 N 
ATOM     57  NH1 ARG     6      -6.917  -9.242   9.992  1.00  0.00     0.063 N 
ENDBRANCH  53  54
ENDBRANCH  52  53
ENDBRANCH  51  52
ENDBRANCH   1  51
BRANCH   1  58
ATOM     58  C   ARG     6      -2.088 -14.634   9.642  1.00  0.00     0.274 C 
ATOM     59  N   ASN     7      -2.134 -15.901   9.237  1.00  0.00    -0.228 NA
ATOM     60  O   ARG     6      -1.071 -14.044  10.006  1.00  0.00    -0.268 OA
BRANCH  59  61
ATOM     61  CA  ASN     7      -0.934 -16.747   9.074  1.00  0.00     0.196 C 
BRANCH  61  62
ATOM     62  C   ASN     7      -1.297 -18.244   9.032  1.00  0.00     0.275 C 
ATOM     63  N   PHE     8      -0.331 -19.094   8.652  1.00  0.00    -0.228 NA
ATOM     64  O   ASN     7      -2.256 -18.600   9.689  1.00  0.00    -0.268 OA
BRANCH  63  65
ATOM     65  CA  PHE     8      -0.460 -20.571   8.631  1.00  0.00     0.191 C 
BRANCH  65  66
ATOM     66  CB  PHE     8      -1.042 -20.984   7.272  1.00  0.00     0.060 C 
BRANCH  66  67
ATOM     67  CG  PHE     8      -1.913 -22.253   7.311  1.00  0.00    -0.020 A 
ATOM     68  CD1 PHE     8      -3.296 -22.145   7.268  1.00  0.00    -0.004 A 
ATOM     69  CE1 PHE     8      -4.086 -23.286   7.406  1.00  0.00    -0.000 A 
ATOM     70  CZ  PHE     8      -3.485 -24.524   7.571  1.00  0.00    -0.000 A 
ATOM     71  CE2 PHE     8      -2.099 -24.636   7.602  1.00  0.00    -0.000 A 
ATOM     72  CD2 PHE     8      -1.309 -23.494   7.463  1.00  0.00    -0.004 A 
ENDBRANCH  66  67
ENDBRANCH  65  66
BRANCH  65  73
ATOM     73  C   PHE     8       0.838 -21.345   8.955  1.00  0.00     0.275 C 
ATOM     74  N   TRP     9       1.798 -21.306   8.030  1.00  0.00    -0.228 NA
ATOM     75  O   PHE     8       0.880 -22.150   9.889  1.00  0.00    -0.268 OA
BRANCH  74  76
ATOM     76  CA  TRP     9       3.139 -21.899   8.261  1.00  0.00     0.191 C 
BRANCH  76  77
ATOM     77  CB  TRP     9       3.647 -21.453   9.642  1.00  0.00     0.062 C 
BRANCH  77  78
ATOM     78  CG  TRP     9       4.919 -20.610   9.571  1.00  0.00     0.001 A 
ATOM     79  CD1 TRP     9       5.135 -19.589   8.747  1.00  0.00     0.095 A 
ATOM     80  NE1 TRP     9       6.425 -19.280   8.743  1.00  0.00    -0.244 NA
ATOM     81  CE2 TRP     9       7.074 -20.078   9.578  1.00  0.00     0.081 A 
ATOM     82  CD2 TRP     9       6.149 -20.956  10.121  1.00  0.00     0.015 A 
ATOM     83  CZ2 TRP     9       8.427 -20.235   9.879  1.00  0.00     0.019 A 
ATOM     84  CE3 TRP     9       6.555 -21.995  10.945  1.00  0.00     0.001 A 
ATOM     85  CZ3 TRP     9       7.905 -22.162  11.236  1.00  0.00     0.000 A 
ATOM     86  CH2 TRP     9       8.835 -21.265  10.713  1.00  0.00     0.002 A 
ENDBRANCH  77  78
ENDBRANCH  76  77
BRANCH  76  87
ATOM     87  C   TRP     9       3.197 -23.436   8.101  1.00  0.00     0.275 C 
ATOM     88  O   TRP     9       2.168 -24.097   7.995  1.00  0.00    -0.268 OA
ATOM     89  N   GLY    10       4.412 -23.970   7.986  1.00  0.00    -0.226 NA
BRANCH  89  90
ATOM     90  CA  GLY    10       4.674 -25.421   7.782  1.00  0.00     0.218 C 
BRANCH  90  91
ATOM     91  C   GLY    10       4.381 -26.342   8.978  1.00  0.00     0.277 C 
ATOM     92  N   CYS    11       4.969 -27.536   8.927  1.00  0.00    -0.228 NA
ATOM     93  O   GLY    10       3.530 -26.037   9.806  1.00  0.00    -0.268 OA
BRANCH  92  94
ATOM     94  CA  CYS    11       4.882 -28.606   9.945  1.00  0.00     0.198 C 
BRANCH  94  95
ATOM     95  C   CYS    11       6.112 -29.521   9.785  1.00  0.00     0.275 C 
ATOM     96  O   CYS    11       5.945 -30.695   9.472  1.00  0.00    -0.268 OA
ATOM     97  N   GLY    12       7.268 -29.018  10.192  1.00  0.00    -0.225 NA
BRANCH  97  98
ATOM     98  CA  GLY    12       8.535 -29.764  10.124  1.00  0.00     0.226 C 
BRANCH  98  99
ATOM     99  C   GLY    12       9.643 -28.782   9.676  1.00  0.00     0.211 C 
ATOM    100  O1  GLY    12      10.774 -28.930  10.203  1.00  0.00    -0.646 OA
ATOM    101  O2  GLY    12       9.355 -27.942   8.804  1.00  0.00    -0.646 OA
ENDBRANCH  98  99
ENDBRANCH  97  98
ENDBRANCH  94  95
BRANCH  94 102
ATOM    102  CB  CYS    11       3.670 -29.494   9.672  1.00  0.00     0.103 C 
ATOM    103  SG  CYS    11       3.541 -30.187   7.979  1.00  0.00    -0.080 SA
ENDBRANCH  94 102
ENDBRANCH  92  94
ENDBRANCH  90  91
ENDBRANCH  89  90
ENDBRANCH  76  87
ENDBRANCH  74  76
ENDBRANCH  65  73
ENDBRANCH  63  65
ENDBRANCH  61  62
BRANCH  61 104
ATOM    104  CB  ASN     7       0.099 -16.467  10.174  1.00  0.00     0.126 C 
BRANCH 104 105
ATOM    105  CG  ASN     7       1.568 -16.570   9.724  1.00  0.00     0.276 C 
ATOM    106  ND2 ASN     7       2.367 -17.247  10.516  1.00  0.00    -0.107 N 
ATOM    107  OD1 ASN     7       2.062 -15.951   8.790  1.00  0.00    -0.269 OA
ENDBRANCH 104 105
ENDBRANCH  61 104
ENDBRANCH  59  61
ENDBRANCH   1  58
TORSDOF 42
ENDMDL
MODEL 6
REMARK VINA RESULT:      -3.1     20.788     30.002
REMARK WARNING: 32 MAX_TORS EXCEEDED!!!
REMARK  42 active torsions:
REMARK  status: ('A' for Active; 'I' for Inactive)
REMARK    1  A    between atoms: CA_2  and  CB_3 
REMARK    2  A    between atoms: CA_2  and  C_11 
REMARK    3  A    between atoms: CB_3  and  CG_4 
REMARK       I    between atoms: C_11  and  N_13 
REMARK    4  A    between atoms: N_13  and  CA_14 
REMARK    5  A    between atoms: CA_14  and  CB_15 
REMARK    6  A    between atoms: CA_14  and  C_19 
REMARK    7  A    between atoms: CB_15  and  CG_16 
REMARK       I    between atoms: C_19  and  N_21 
REMARK    8  A    between atoms: CA_22  and  C_26 
REMARK       I    between atoms: C_26  and  N_28 
REMARK    9  A    between atoms: N_28  and  CA_29 
REMARK   10  A    between atoms: CA_29  and  C_35 
REMARK   11  A    between atoms: CA_29  and  CB_30 
REMARK   12  A    between atoms: CB_30  and  CG_31 
REMARK   13  A    between atoms: CG_31  and  CD_32 
REMARK       I    between atoms: C_35  and  N_37 
REMARK   14  A    between atoms: N_37  and  CA_38 
REMARK   15  A    between atoms: CA_38  and  CB_39 
REMARK   16  A    between atoms: CA_38  and  C_47 
REMARK   17  A    between atoms: CB_39  and  CG_40 
REMARK       I    between atoms: C_47  and  N_49 
REMARK   18  A    between atoms: N_49  and  CA_50 
REMARK   19  A    between atoms: CA_50  and  CB_51 
REMARK   20  A    between atoms: CA_50  and  C_58 
REMARK   21  A    between atoms: CB_51  and  CG_52 
REMARK   22  A    between atoms: CG_52  and  CD_53 
REMARK   23  A    between atoms: CD_53  and  NE_54 
REMARK       I    between atoms: C_58  and  N_60 
REMARK   24  A    between atoms: N_60  and  CA_61 
REMARK   25  A    between atoms: CA_61  and  C_66 
REMARK   26  A    between atoms: CA_61  and  CB_62 
REMARK   27  A    between atoms: CB_62  and  CG_63 
REMARK       I    between atoms: C_66  and  N_68 
REMARK   28  A    between atoms: N_68  and  CA_69 
REMARK   29  A    between atoms: CA_69  and  CB_70 
REMARK   30  A    between atoms: CA_69  and  C_77 
REMARK   31  A    between atoms: CB_70  and  CG_71 
REMARK       I    between atoms: C_77  and  N_79 
REMARK   32  A    between atoms: N_79  and  CA_80 
REMARK   33  A    between atoms: CA_80  and  CB_81 
REMARK   34  A    between atoms: CA_80  and  C_91 
REMARK   35  A    between atoms: CB_81  and  CG_82 
REMARK       I    between atoms: C_91  and  N_93 
REMARK   36  A    between atoms: N_93  and  CA_94 
REMARK   37  A    between atoms: CA_94  and  C_95 
REMARK       I    between atoms: C_95  and  N_97 
REMARK   38  A    between atoms: N_97  and  CA_98 
REMARK   39  A    between atoms: CA_98  and  C_101 
REMARK   40  A    between atoms: CA_98  and  CB_99 
REMARK       I    between atoms: C_101  and  N_103 
REMARK   41  A    between atoms: N_103  and  CA_104 
REMARK   42  A    between atoms: CA_104  and  C_105 
ROOT
ATOM      1  CA  ARG     6      -5.299 -21.259   9.343  1.00  0.00     0.186 C 
ENDROOT
BRANCH   1   2
ATOM      2  N   ARG     6      -5.228 -19.782   9.244  1.00  0.00    -0.229 NA
ATOM      3  C   TYR     5      -5.814 -18.973  10.136  1.00  0.00     0.275 C 
ATOM      4  O   TYR     5      -6.427 -19.405  11.113  1.00  0.00    -0.268 OA
BRANCH   3   5
ATOM      5  CA  TYR     5      -5.600 -17.462   9.959  1.00  0.00     0.191 C 
BRANCH   5   6
ATOM      6  N   TYR     5      -6.444 -16.864   8.892  1.00  0.00    -0.228 NA
ATOM      7  C   GLU     4      -7.756 -16.620   9.045  1.00  0.00     0.274 C 
ATOM      8  O   GLU     4      -8.329 -16.739  10.120  1.00  0.00    -0.268 OA
BRANCH   7   9
ATOM      9  CA  GLU     4      -8.444 -15.868   7.887  1.00  0.00     0.187 C 
BRANCH   9  10
ATOM     10  CB  GLU     4      -7.465 -14.857   7.268  1.00  0.00     0.045 C 
BRANCH  10  11
ATOM     11  CG  GLU     4      -6.946 -13.745   8.206  1.00  0.00     0.100 C 
BRANCH  11  12
ATOM     12  CD  GLU     4      -5.602 -13.149   7.791  1.00  0.00     0.185 C 
ATOM     13  OE1 GLU     4      -5.570 -11.916   7.538  1.00  0.00    -0.647 OA
ATOM     14  OE2 GLU     4      -4.774 -13.931   7.282  1.00  0.00    -0.647 OA
ENDBRANCH  11  12
ENDBRANCH  10  11
ENDBRANCH   9  10
BRANCH   9  15
ATOM     15  N   GLU     4      -9.663 -15.149   8.303  1.00  0.00    -0.229 NA
ATOM     16  C   PRO     3      -9.897 -14.527   9.453  1.00  0.00     0.272 C 
ATOM     17  O   PRO     3      -9.002 -14.135  10.204  1.00  0.00    -0.269 OA
BRANCH  16  18
ATOM     18  CA  PRO     3     -11.275 -13.874   9.574  1.00  0.00     0.165 C 
ATOM     19  N   PRO     3     -12.265 -14.652  10.349  1.00  0.00    -0.312 N 
ATOM     20  CD  PRO     3     -13.063 -13.734  11.202  1.00  0.00     0.105 C 
ATOM     21  C   ASP     2     -12.494 -15.966  10.172  1.00  0.00     0.257 C 
ATOM     22  CG  PRO     3     -12.650 -12.329  10.738  1.00  0.00     0.027 C 
ATOM     23  CB  PRO     3     -11.212 -12.512  10.261  1.00  0.00     0.034 C 
ATOM     24  O   ASP     2     -12.026 -16.556   9.187  1.00  0.00    -0.270 OA
BRANCH  21  25
ATOM     25  CA  ASP     2     -13.614 -16.658  10.981  1.00  0.00     0.195 C 
BRANCH  25  26
ATOM     26  CB  ASP     2     -13.358 -18.131  11.392  1.00  0.00     0.132 C 
BRANCH  26  27
ATOM     27  CG  ASP     2     -14.088 -19.092  10.434  1.00  0.00     0.188 C 
ATOM     28  OD2 ASP     2     -15.281 -19.353  10.734  1.00  0.00    -0.647 OA
ATOM     29  OD1 ASP     2     -13.380 -19.943   9.841  1.00  0.00    -0.647 OA
ENDBRANCH  26  27
ENDBRANCH  25  26
BRANCH  25  30
ATOM     30  N   ASP     2     -14.870 -16.755  10.216  1.00  0.00    -0.228 NA
ATOM     31  C   TYR     1     -15.927 -15.987  10.343  1.00  0.00     0.289 C 
ATOM     32  O   TYR     1     -16.043 -14.958  11.015  1.00  0.00    -0.268 OA
BRANCH  31  33
ATOM     33  CA  TYR     1     -17.115 -16.515   9.545  1.00  0.00     0.385 C 
ATOM     34  N   TYR     1     -18.157 -16.919  10.503  1.00  0.00     0.626 N 
BRANCH  33  35
ATOM     35  CB  TYR     1     -17.576 -15.393   8.619  1.00  0.00     0.075 C 
BRANCH  35  36
ATOM     36  CG  TYR     1     -18.728 -14.563   9.207  1.00  0.00    -0.019 A 
ATOM     37  CD2 TYR     1     -20.023 -15.055   9.252  1.00  0.00    -0.002 A 
ATOM     38  CE2 TYR     1     -21.017 -14.345   9.908  1.00  0.00     0.027 A 
ATOM     39  CZ  TYR     1     -20.697 -13.131  10.515  1.00  0.00     0.131 A 
ATOM     40  CE1 TYR     1     -19.412 -12.626  10.431  1.00  0.00     0.027 A 
ATOM     41  OH  TYR     1     -21.592 -12.516  11.314  1.00  0.00    -0.190 OA
ATOM     42  CD1 TYR     1     -18.418 -13.336   9.774  1.00  0.00    -0.002 A 
ENDBRANCH  35  36
ENDBRANCH  33  35
ENDBRANCH  31  33
ENDBRANCH  25  30
ENDBRANCH  21  25
ENDBRANCH  16  18
ENDBRANCH   9  15
ENDBRANCH   7   9
ENDBRANCH   5   6
BRANCH   5  43
ATOM     43  CB  TYR     5      -5.821 -16.716  11.286  1.00  0.00     0.060 C 
BRANCH  43  44
ATOM     44  CG  TYR     5      -5.191 -15.313  11.279  1.00  0.00    -0.020 A 
ATOM     45  CD2 TYR     5      -3.818 -15.155  11.143  1.00  0.00    -0.002 A 
ATOM     46  CE2 TYR     5      -3.258 -13.881  11.130  1.00  0.00     0.027 A 
ATOM     47  CZ  TYR     5      -4.072 -12.765  11.253  1.00  0.00     0.131 A 
ATOM     48  CE1 TYR     5      -5.449 -12.914  11.371  1.00  0.00     0.027 A 
ATOM     49  OH  TYR     5      -3.526 -11.536  11.381  1.00  0.00    -0.190 OA
ATOM     50  CD1 TYR     5      -6.007 -14.192  11.393  1.00  0.00    -0.002 A 
ENDBRANCH  43  44
ENDBRANCH   5  43
ENDBRANCH   3   5
ENDBRANCH   1   2
BRANCH   1  51
ATOM     51  CB  ARG     6      -5.973 -21.902   8.135  1.00  0.00     0.036 C 
BRANCH  51  52
ATOM     52  CG  ARG     6      -7.352 -22.492   8.442  1.00  0.00     0.029 C 
BRANCH  52  53
ATOM     53  CD  ARG     6      -8.407 -21.389   8.471  1.00  0.00     0.145 C 
BRANCH  53  54
ATOM     54  NE  ARG     6      -9.324 -21.566   9.608  1.00  0.00    -0.083 NA
ATOM     55  CZ  ARG     6     -10.638 -21.848   9.516  1.00  0.00     0.782 C 
ATOM     56  NH2 ARG     6     -11.397 -21.905  10.612  1.00  0.00     0.063 N 
ATOM     57  NH1 ARG     6     -11.212 -21.987   8.326  1.00  0.00     0.063 N 
ENDBRANCH  53  54
ENDBRANCH  52  53
ENDBRANCH  51  52
ENDBRANCH   1  51
BRANCH   1  58
ATOM     58  C   ARG     6      -3.915 -21.906   9.470  1.00  0.00     0.274 C 
ATOM     59  N   ASN     7      -3.048 -21.610   8.505  1.00  0.00    -0.228 NA
ATOM     60  O   ARG     6      -3.683 -22.648  10.426  1.00  0.00    -0.268 OA
BRANCH  59  61
ATOM     61  CA  ASN     7      -1.641 -22.059   8.509  1.00  0.00     0.196 C 
BRANCH  61  62
ATOM     62  C   ASN     7      -0.666 -20.867   8.588  1.00  0.00     0.275 C 
ATOM     63  N   PHE     8       0.565 -21.120   9.058  1.00  0.00    -0.228 NA
ATOM     64  O   ASN     7      -0.912 -19.903   7.889  1.00  0.00    -0.268 OA
BRANCH  63  65
ATOM     65  CA  PHE     8       1.666 -20.128   9.130  1.00  0.00     0.191 C 
BRANCH  65  66
ATOM     66  CB  PHE     8       1.688 -19.536  10.546  1.00  0.00     0.060 C 
BRANCH  66  67
ATOM     67  CG  PHE     8       1.055 -18.136  10.660  1.00  0.00    -0.020 A 
ATOM     68  CD1 PHE     8      -0.137 -17.969  11.351  1.00  0.00    -0.004 A 
ATOM     69  CE1 PHE     8      -0.761 -16.722  11.368  1.00  0.00    -0.000 A 
ATOM     70  CZ  PHE     8      -0.179 -15.653  10.706  1.00  0.00    -0.000 A 
ATOM     71  CE2 PHE     8       1.022 -15.815  10.024  1.00  0.00    -0.000 A 
ATOM     72  CD2 PHE     8       1.647 -17.062  10.008  1.00  0.00    -0.004 A 
ENDBRANCH  66  67
ENDBRANCH  65  66
BRANCH  65  73
ATOM     73  C   PHE     8       3.054 -20.663   8.712  1.00  0.00     0.275 C 
ATOM     74  N   TRP     9       4.037 -19.764   8.633  1.00  0.00    -0.228 NA
ATOM     75  O   PHE     8       3.181 -21.795   8.238  1.00  0.00    -0.268 OA
BRANCH  74  76
ATOM     76  CA  TRP     9       5.443 -20.156   8.365  1.00  0.00     0.191 C 
BRANCH  76  77
ATOM     77  CB  TRP     9       6.128 -19.033   7.569  1.00  0.00     0.062 C 
BRANCH  77  78
ATOM     78  CG  TRP     9       5.711 -17.635   8.021  1.00  0.00     0.001 A 
ATOM     79  CD1 TRP     9       4.751 -16.892   7.477  1.00  0.00     0.095 A 
ATOM     80  NE1 TRP     9       4.852 -15.642   7.911  1.00  0.00    -0.244 NA
ATOM     81  CE2 TRP     9       5.864 -15.548   8.761  1.00  0.00     0.081 A 
ATOM     82  CD2 TRP     9       6.452 -16.799   8.851  1.00  0.00     0.015 A 
ATOM     83  CZ2 TRP     9       6.446 -14.468   9.423  1.00  0.00     0.019 A 
ATOM     84  CE3 TRP     9       7.618 -16.986   9.578  1.00  0.00     0.001 A 
ATOM     85  CZ3 TRP     9       8.208 -15.907  10.229  1.00  0.00     0.000 A 
ATOM     86  CH2 TRP     9       7.605 -14.652  10.162  1.00  0.00     0.002 A 
ENDBRANCH  77  78
ENDBRANCH  76  77
BRANCH  76  87
ATOM     87  C   TRP     9       6.253 -20.538   9.625  1.00  0.00     0.275 C 
ATOM     88  O   TRP     9       5.705 -20.650  10.717  1.00  0.00    -0.268 OA
ATOM     89  N   GLY    10       7.538 -20.831   9.431  1.00  0.00    -0.226 NA
BRANCH  89  90
ATOM     90  CA  GLY    10       8.472 -21.262  10.508  1.00  0.00     0.218 C 
BRANCH  90  91
ATOM     91  C   GLY    10       9.971 -21.220  10.168  1.00  0.00     0.277 C 
ATOM     92  N   CYS    11      10.530 -22.408   9.943  1.00  0.00    -0.228 NA
ATOM     93  O   GLY    10      10.606 -20.178  10.278  1.00  0.00    -0.268 OA
BRANCH  92  94
ATOM     94  CA  CYS    11      11.941 -22.663   9.576  1.00  0.00     0.198 C 
BRANCH  94  95
ATOM     95  C   CYS    11      12.336 -21.662   8.472  1.00  0.00     0.275 C 
ATOM     96  O   CYS    11      11.789 -21.736   7.377  1.00  0.00    -0.268 OA
ATOM     97  N   GLY    12      13.395 -20.907   8.723  1.00  0.00    -0.225 NA
BRANCH  97  98
ATOM     98  CA  GLY    12      13.915 -19.913   7.772  1.00  0.00     0.226 C 
BRANCH  98  99
ATOM     99  C   GLY    12      13.446 -18.515   8.237  1.00  0.00     0.211 C 
ATOM    100  O1  GLY    12      14.342 -17.657   8.440  1.00  0.00    -0.646 OA
ATOM    101  O2  GLY    12      12.221 -18.320   8.344  1.00  0.00    -0.646 OA
ENDBRANCH  98  99
ENDBRANCH  97  98
ENDBRANCH  94  95
BRANCH  94 102
ATOM    102  CB  CYS    11      12.079 -24.047   8.945  1.00  0.00     0.103 C 
ATOM    103  SG  CYS    11      11.200 -25.413   9.797  1.00  0.00    -0.080 SA
ENDBRANCH  94 102
ENDBRANCH  92  94
ENDBRANCH  90  91
ENDBRANCH  89  90
ENDBRANCH  76  87
ENDBRANCH  74  76
ENDBRANCH  65  73
ENDBRANCH  63  65
ENDBRANCH  61  62
BRANCH  61 104
ATOM    104  CB  ASN     7      -1.333 -22.935   7.288  1.00  0.00     0.126 C 
BRANCH 104 105
ATOM    105  CG  ASN     7      -1.271 -24.446   7.575  1.00  0.00     0.276 C 
ATOM    106  ND2 ASN     7      -2.329 -24.967   8.154  1.00  0.00    -0.107 N 
ATOM    107  OD1 ASN     7      -0.274 -25.145   7.449  1.00  0.00    -0.269 OA
ENDBRANCH 104 105
ENDBRANCH  61 104
ENDBRANCH  59  61
ENDBRANCH   1  58
TORSDOF 42
ENDMDL
MODEL 7
REMARK VINA RESULT:      -3.0      2.088      3.072
REMARK WARNING: 32 MAX_TORS EXCEEDED!!!
REMARK  42 active torsions:
REMARK  status: ('A' for Active; 'I' for Inactive)
REMARK    1  A    between atoms: CA_2  and  CB_3 
REMARK    2  A    between atoms: CA_2  and  C_11 
REMARK    3  A    between atoms: CB_3  and  CG_4 
REMARK       I    between atoms: C_11  and  N_13 
REMARK    4  A    between atoms: N_13  and  CA_14 
REMARK    5  A    between atoms: CA_14  and  CB_15 
REMARK    6  A    between atoms: CA_14  and  C_19 
REMARK    7  A    between atoms: CB_15  and  CG_16 
REMARK       I    between atoms: C_19  and  N_21 
REMARK    8  A    between atoms: CA_22  and  C_26 
REMARK       I    between atoms: C_26  and  N_28 
REMARK    9  A    between atoms: N_28  and  CA_29 
REMARK   10  A    between atoms: CA_29  and  C_35 
REMARK   11  A    between atoms: CA_29  and  CB_30 
REMARK   12  A    between atoms: CB_30  and  CG_31 
REMARK   13  A    between atoms: CG_31  and  CD_32 
REMARK       I    between atoms: C_35  and  N_37 
REMARK   14  A    between atoms: N_37  and  CA_38 
REMARK   15  A    between atoms: CA_38  and  CB_39 
REMARK   16  A    between atoms: CA_38  and  C_47 
REMARK   17  A    between atoms: CB_39  and  CG_40 
REMARK       I    between atoms: C_47  and  N_49 
REMARK   18  A    between atoms: N_49  and  CA_50 
REMARK   19  A    between atoms: CA_50  and  CB_51 
REMARK   20  A    between atoms: CA_50  and  C_58 
REMARK   21  A    between atoms: CB_51  and  CG_52 
REMARK   22  A    between atoms: CG_52  and  CD_53 
REMARK   23  A    between atoms: CD_53  and  NE_54 
REMARK       I    between atoms: C_58  and  N_60 
REMARK   24  A    between atoms: N_60  and  CA_61 
REMARK   25  A    between atoms: CA_61  and  C_66 
REMARK   26  A    between atoms: CA_61  and  CB_62 
REMARK   27  A    between atoms: CB_62  and  CG_63 
REMARK       I    between atoms: C_66  and  N_68 
REMARK   28  A    between atoms: N_68  and  CA_69 
REMARK   29  A    between atoms: CA_69  and  CB_70 
REMARK   30  A    between atoms: CA_69  and  C_77 
REMARK   31  A    between atoms: CB_70  and  CG_71 
REMARK       I    between atoms: C_77  and  N_79 
REMARK   32  A    between atoms: N_79  and  CA_80 
REMARK   33  A    between atoms: CA_80  and  CB_81 
REMARK   34  A    between atoms: CA_80  and  C_91 
REMARK   35  A    between atoms: CB_81  and  CG_82 
REMARK       I    between atoms: C_91  and  N_93 
REMARK   36  A    between atoms: N_93  and  CA_94 
REMARK   37  A    between atoms: CA_94  and  C_95 
REMARK       I    between atoms: C_95  and  N_97 
REMARK   38  A    between atoms: N_97  and  CA_98 
REMARK   39  A    between atoms: CA_98  and  C_101 
REMARK   40  A    between atoms: CA_98  and  CB_99 
REMARK       I    between atoms: C_101  and  N_103 
REMARK   41  A    between atoms: N_103  and  CA_104 
REMARK   42  A    between atoms: CA_104  and  C_105 
ROOT
ATOM      1  CA  ARG     6       4.731  -1.301  10.164  1.00  0.00     0.186 C 
ENDROOT
BRANCH   1   2
ATOM      2  N   ARG     6       6.097  -1.870  10.096  1.00  0.00    -0.229 NA
ATOM      3  C   TYR     5       7.177  -1.117   9.854  1.00  0.00     0.275 C 
ATOM      4  O   TYR     5       7.109   0.103   9.703  1.00  0.00    -0.268 OA
BRANCH   3   5
ATOM      5  CA  TYR     5       8.544  -1.821   9.883  1.00  0.00     0.191 C 
BRANCH   5   6
ATOM      6  N   TYR     5       9.695  -0.882   9.865  1.00  0.00    -0.228 NA
ATOM      7  C   GLU     4      10.589  -0.837   8.863  1.00  0.00     0.274 C 
ATOM      8  O   GLU     4      10.448  -1.467   7.823  1.00  0.00    -0.268 OA
BRANCH   7   9
ATOM      9  CA  GLU     4      11.637   0.292   8.941  1.00  0.00     0.187 C 
BRANCH   9  10
ATOM     10  CB  GLU     4      11.106   1.546   8.226  1.00  0.00     0.045 C 
BRANCH  10  11
ATOM     11  CG  GLU     4      11.417   2.900   8.899  1.00  0.00     0.100 C 
BRANCH  11  12
ATOM     12  CD  GLU     4      10.711   3.115  10.237  1.00  0.00     0.185 C 
ATOM     13  OE1 GLU     4       9.638   2.485  10.432  1.00  0.00    -0.647 OA
ATOM     14  OE2 GLU     4      10.941   4.190  10.827  1.00  0.00    -0.647 OA
ENDBRANCH  11  12
ENDBRANCH  10  11
ENDBRANCH   9  10
BRANCH   9  15
ATOM     15  N   GLU     4      12.935  -0.075   8.345  1.00  0.00    -0.229 NA
ATOM     16  C   PRO     3      13.991  -0.611   8.946  1.00  0.00     0.272 C 
ATOM     17  O   PRO     3      13.923  -1.225  10.012  1.00  0.00    -0.269 OA
BRANCH  16  18
ATOM     18  CA  PRO     3      15.196  -0.873   8.040  1.00  0.00     0.165 C 
ATOM     19  N   PRO     3      16.380  -0.034   8.323  1.00  0.00    -0.312 N 
ATOM     20  CD  PRO     3      17.612  -0.857   8.210  1.00  0.00     0.105 C 
ATOM     21  C   ASP     2      16.333   1.299   8.497  1.00  0.00     0.257 C 
ATOM     22  CG  PRO     3      17.125  -2.192   7.626  1.00  0.00     0.027 C 
ATOM     23  CB  PRO     3      15.694  -2.313   8.142  1.00  0.00     0.034 C 
ATOM     24  O   ASP     2      15.304   1.931   8.215  1.00  0.00    -0.270 OA
BRANCH  21  25
ATOM     25  CA  ASP     2      17.647   2.086   8.702  1.00  0.00     0.195 C 
BRANCH  25  26
ATOM     26  CB  ASP     2      18.040   2.401  10.169  1.00  0.00     0.132 C 
BRANCH  26  27
ATOM     27  CG  ASP     2      19.287   1.595  10.577  1.00  0.00     0.188 C 
ATOM     28  OD2 ASP     2      20.269   1.685   9.798  1.00  0.00    -0.647 OA
ATOM     29  OD1 ASP     2      19.087   0.540  11.231  1.00  0.00    -0.647 OA
ENDBRANCH  26  27
ENDBRANCH  25  26
BRANCH  25  30
ATOM     30  N   ASP     2      17.591   3.426   8.093  1.00  0.00    -0.228 NA
ATOM     31  C   TYR     1      17.871   4.567   8.679  1.00  0.00     0.289 C 
ATOM     32  O   TYR     1      18.361   4.747   9.798  1.00  0.00    -0.268 OA
BRANCH  31  33
ATOM     33  CA  TYR     1      17.493   5.762   7.810  1.00  0.00     0.385 C 
ATOM     34  N   TYR     1      16.024   5.815   7.729  1.00  0.00     0.626 N 
BRANCH  33  35
ATOM     35  CB  TYR     1      18.086   7.007   8.466  1.00  0.00     0.075 C 
BRANCH  35  36
ATOM     36  CG  TYR     1      17.042   7.845   9.220  1.00  0.00    -0.019 A 
ATOM     37  CD2 TYR     1      16.764   7.618  10.559  1.00  0.00    -0.002 A 
ATOM     38  CE2 TYR     1      15.920   8.473  11.250  1.00  0.00     0.027 A 
ATOM     39  CZ  TYR     1      15.351   9.556  10.581  1.00  0.00     0.131 A 
ATOM     40  CE1 TYR     1      15.600   9.752   9.234  1.00  0.00     0.027 A 
ATOM     41  OH  TYR     1      14.681  10.503  11.268  1.00  0.00    -0.190 OA
ATOM     42  CD1 TYR     1      16.445   8.897   8.543  1.00  0.00    -0.002 A 
ENDBRANCH  35  36
ENDBRANCH  33  35
ENDBRANCH  31  33
ENDBRANCH  25  30
ENDBRANCH  21  25
ENDBRANCH  16  18
ENDBRANCH   9  15
ENDBRANCH   7   9
ENDBRANCH   5   6
BRANCH   5  43
ATOM     43  CB  TYR     5       8.650  -2.763  11.094  1.00  0.00     0.060 C 
BRANCH  43  44
ATOM     44  CG  TYR     5       9.505  -4.006  10.794  1.00  0.00    -0.020 A 
ATOM     45  CD2 TYR     5      10.821  -4.081  11.230  1.00  0.00    -0.002 A 
ATOM     46  CE2 TYR     5      11.584  -5.213  10.959  1.00  0.00     0.027 A 
ATOM     47  CZ  TYR     5      11.030  -6.270  10.252  1.00  0.00     0.131 A 
ATOM     48  CE1 TYR     5       9.708  -6.209   9.828  1.00  0.00     0.027 A 
ATOM     49  OH  TYR     5      11.802  -7.308   9.865  1.00  0.00    -0.190 OA
ATOM     50  CD1 TYR     5       8.948  -5.070  10.093  1.00  0.00    -0.002 A 
ENDBRANCH  43  44
ENDBRANCH   5  43
ENDBRANCH   3   5
ENDBRANCH   1   2
BRANCH   1  51
ATOM     51  CB  ARG     6       3.955  -1.767  11.392  1.00  0.00     0.036 C 
BRANCH  51  52
ATOM     52  CG  ARG     6       3.090  -3.005  11.140  1.00  0.00     0.029 C 
BRANCH  52  53
ATOM     53  CD  ARG     6       3.932  -4.273  11.256  1.00  0.00     0.145 C 
BRANCH  53  54
ATOM     54  NE  ARG     6       3.689  -5.173  10.116  1.00  0.00    -0.083 NA
ATOM     55  CZ  ARG     6       4.608  -5.545   9.205  1.00  0.00     0.782 C 
ATOM     56  NH2 ARG     6       4.261  -6.300   8.161  1.00  0.00     0.063 N 
ATOM     57  NH1 ARG     6       5.855  -5.093   9.287  1.00  0.00     0.063 N 
ENDBRANCH  53  54
ENDBRANCH  52  53
ENDBRANCH  51  52
ENDBRANCH   1  51
BRANCH   1  58
ATOM     58  C   ARG     6       4.735   0.232  10.204  1.00  0.00     0.274 C 
ATOM     59  N   ASN     7       4.159   0.838   9.169  1.00  0.00    -0.228 NA
ATOM     60  O   ARG     6       5.258   0.807  11.159  1.00  0.00    -0.268 OA
BRANCH  59  61
ATOM     61  CA  ASN     7       3.981   2.302   9.078  1.00  0.00     0.196 C 
BRANCH  61  62
ATOM     62  C   ASN     7       2.496   2.700   9.191  1.00  0.00     0.275 C 
ATOM     63  N   PHE     8       2.168   3.939   8.796  1.00  0.00    -0.228 NA
ATOM     64  O   ASN     7       1.683   1.797   9.248  1.00  0.00    -0.268 OA
BRANCH  63  65
ATOM     65  CA  PHE     8       0.786   4.476   8.748  1.00  0.00     0.191 C 
BRANCH  65  66
ATOM     66  CB  PHE     8      -0.064   3.707   9.768  1.00  0.00     0.060 C 
BRANCH  66  67
ATOM     67  CG  PHE     8      -1.499   3.400   9.299  1.00  0.00    -0.020 A 
ATOM     68  CD1 PHE     8      -1.720   2.917   8.016  1.00  0.00    -0.004 A 
ATOM     69  CE1 PHE     8      -3.024   2.737   7.557  1.00  0.00    -0.000 A 
ATOM     70  CZ  PHE     8      -4.093   3.027   8.390  1.00  0.00    -0.000 A 
ATOM     71  CE2 PHE     8      -3.874   3.499   9.680  1.00  0.00    -0.000 A 
ATOM     72  CD2 PHE     8      -2.569   3.679  10.139  1.00  0.00    -0.004 A 
ENDBRANCH  66  67
ENDBRANCH  65  66
BRANCH  65  73
ATOM     73  C   PHE     8       0.672   6.004   8.947  1.00  0.00     0.275 C 
ATOM     74  N   TRP     9       1.549   6.757   8.279  1.00  0.00    -0.228 NA
ATOM     75  O   PHE     8      -0.014   6.476   9.857  1.00  0.00    -0.268 OA
BRANCH  74  76
ATOM     76  CA  TRP     9       1.476   8.239   8.280  1.00  0.00     0.191 C 
BRANCH  76  77
ATOM     77  CB  TRP     9       0.147   8.670   8.921  1.00  0.00     0.062 C 
BRANCH  77  78
ATOM     78  CG  TRP     9      -0.508   9.854   8.210  1.00  0.00     0.001 A 
ATOM     79  CD1 TRP     9       0.031  11.058   8.041  1.00  0.00     0.095 A 
ATOM     80  NE1 TRP     9      -0.903  11.918   7.657  1.00  0.00    -0.244 NA
ATOM     81  CE2 TRP     9      -2.065  11.290   7.548  1.00  0.00     0.081 A 
ATOM     82  CD2 TRP     9      -1.861   9.967   7.907  1.00  0.00     0.015 A 
ATOM     83  CZ2 TRP     9      -3.358  11.733   7.270  1.00  0.00     0.019 A 
ATOM     84  CE3 TRP     9      -2.927   9.085   8.007  1.00  0.00     0.001 A 
ATOM     85  CZ3 TRP     9      -4.218   9.528   7.744  1.00  0.00     0.000 A 
ATOM     86  CH2 TRP     9      -4.425  10.851   7.357  1.00  0.00     0.002 A 
ENDBRANCH  77  78
ENDBRANCH  76  77
BRANCH  76  87
ATOM     87  C   TRP     9       2.683   8.939   8.945  1.00  0.00     0.275 C 
ATOM     88  O   TRP     9       3.135   8.538  10.013  1.00  0.00    -0.268 OA
ATOM     89  N   GLY    10       3.250   9.922   8.247  1.00  0.00    -0.226 NA
BRANCH  89  90
ATOM     90  CA  GLY    10       4.445  10.688   8.697  1.00  0.00     0.218 C 
BRANCH  90  91
ATOM     91  C   GLY    10       4.179  12.074   9.304  1.00  0.00     0.277 C 
ATOM     92  N   CYS    11       4.866  13.073   8.751  1.00  0.00    -0.228 NA
ATOM     93  O   GLY    10       3.516  12.189  10.329  1.00  0.00    -0.268 OA
BRANCH  92  94
ATOM     94  CA  CYS    11       4.790  14.505   9.118  1.00  0.00     0.198 C 
BRANCH  94  95
ATOM     95  C   CYS    11       3.631  15.141   8.327  1.00  0.00     0.275 C 
ATOM     96  O   CYS    11       3.874  15.718   7.272  1.00  0.00    -0.268 OA
ATOM     97  N   GLY    12       2.461  15.192   8.947  1.00  0.00    -0.225 NA
BRANCH  97  98
ATOM     98  CA  GLY    12       1.257  15.780   8.342  1.00  0.00     0.226 C 
BRANCH  98  99
ATOM     99  C   GLY    12       0.034  15.325   9.171  1.00  0.00     0.211 C 
ATOM    100  O1  GLY    12      -0.995  16.044   9.101  1.00  0.00    -0.646 OA
ATOM    101  O2  GLY    12       0.134  14.267   9.819  1.00  0.00    -0.646 OA
ENDBRANCH  98  99
ENDBRANCH  97  98
ENDBRANCH  94  95
BRANCH  94 102
ATOM    102  CB  CYS    11       6.051  15.233   8.658  1.00  0.00     0.103 C 
ATOM    103  SG  CYS    11       7.634  14.337   8.896  1.00  0.00    -0.080 SA
ENDBRANCH  94 102
ENDBRANCH  92  94
ENDBRANCH  90  91
ENDBRANCH  89  90
ENDBRANCH  76  87
ENDBRANCH  74  76
ENDBRANCH  65  73
ENDBRANCH  63  65
ENDBRANCH  61  62
BRANCH  61 104
ATOM    104  CB  ASN     7       4.598   2.859   7.789  1.00  0.00     0.126 C 
BRANCH 104 105
ATOM    105  CG  ASN     7       5.844   3.740   7.997  1.00  0.00     0.276 C 
ATOM    106  ND2 ASN     7       6.981   3.102   8.159  1.00  0.00    -0.107 N 
ATOM    107  OD1 ASN     7       5.827   4.951   8.174  1.00  0.00    -0.269 OA
ENDBRANCH 104 105
ENDBRANCH  61 104
ENDBRANCH  59  61
ENDBRANCH   1  58
TORSDOF 42
ENDMDL
MODEL 8
REMARK VINA RESULT:      -2.9     20.493     28.985
REMARK WARNING: 32 MAX_TORS EXCEEDED!!!
REMARK  42 active torsions:
REMARK  status: ('A' for Active; 'I' for Inactive)
REMARK    1  A    between atoms: CA_2  and  CB_3 
REMARK    2  A    between atoms: CA_2  and  C_11 
REMARK    3  A    between atoms: CB_3  and  CG_4 
REMARK       I    between atoms: C_11  and  N_13 
REMARK    4  A    between atoms: N_13  and  CA_14 
REMARK    5  A    between atoms: CA_14  and  CB_15 
REMARK    6  A    between atoms: CA_14  and  C_19 
REMARK    7  A    between atoms: CB_15  and  CG_16 
REMARK       I    between atoms: C_19  and  N_21 
REMARK    8  A    between atoms: CA_22  and  C_26 
REMARK       I    between atoms: C_26  and  N_28 
REMARK    9  A    between atoms: N_28  and  CA_29 
REMARK   10  A    between atoms: CA_29  and  C_35 
REMARK   11  A    between atoms: CA_29  and  CB_30 
REMARK   12  A    between atoms: CB_30  and  CG_31 
REMARK   13  A    between atoms: CG_31  and  CD_32 
REMARK       I    between atoms: C_35  and  N_37 
REMARK   14  A    between atoms: N_37  and  CA_38 
REMARK   15  A    between atoms: CA_38  and  CB_39 
REMARK   16  A    between atoms: CA_38  and  C_47 
REMARK   17  A    between atoms: CB_39  and  CG_40 
REMARK       I    between atoms: C_47  and  N_49 
REMARK   18  A    between atoms: N_49  and  CA_50 
REMARK   19  A    between atoms: CA_50  and  CB_51 
REMARK   20  A    between atoms: CA_50  and  C_58 
REMARK   21  A    between atoms: CB_51  and  CG_52 
REMARK   22  A    between atoms: CG_52  and  CD_53 
REMARK   23  A    between atoms: CD_53  and  NE_54 
REMARK       I    between atoms: C_58  and  N_60 
REMARK   24  A    between atoms: N_60  and  CA_61 
REMARK   25  A    between atoms: CA_61  and  C_66 
REMARK   26  A    between atoms: CA_61  and  CB_62 
REMARK   27  A    between atoms: CB_62  and  CG_63 
REMARK       I    between atoms: C_66  and  N_68 
REMARK   28  A    between atoms: N_68  and  CA_69 
REMARK   29  A    between atoms: CA_69  and  CB_70 
REMARK   30  A    between atoms: CA_69  and  C_77 
REMARK   31  A    between atoms: CB_70  and  CG_71 
REMARK       I    between atoms: C_77  and  N_79 
REMARK   32  A    between atoms: N_79  and  CA_80 
REMARK   33  A    between atoms: CA_80  and  CB_81 
REMARK   34  A    between atoms: CA_80  and  C_91 
REMARK   35  A    between atoms: CB_81  and  CG_82 
REMARK       I    between atoms: C_91  and  N_93 
REMARK   36  A    between atoms: N_93  and  CA_94 
REMARK   37  A    between atoms: CA_94  and  C_95 
REMARK       I    between atoms: C_95  and  N_97 
REMARK   38  A    between atoms: N_97  and  CA_98 
REMARK   39  A    between atoms: CA_98  and  C_101 
REMARK   40  A    between atoms: CA_98  and  CB_99 
REMARK       I    between atoms: C_101  and  N_103 
REMARK   41  A    between atoms: N_103  and  CA_104 
REMARK   42  A    between atoms: CA_104  and  C_105 
ROOT
ATOM      1  CA  ARG     6      -1.338 -16.834   9.878  1.00  0.00     0.186 C 
ENDROOT
BRANCH   1   2
ATOM      2  N   ARG     6      -0.669 -18.035   9.326  1.00  0.00    -0.229 NA
ATOM      3  C   TYR     5       0.662 -18.186   9.343  1.00  0.00     0.275 C 
ATOM      4  O   TYR     5       1.414 -17.349   9.845  1.00  0.00    -0.268 OA
BRANCH   3   5
ATOM      5  CA  TYR     5       1.224 -19.513   8.807  1.00  0.00     0.191 C 
BRANCH   5   6
ATOM      6  N   TYR     5       2.670 -19.452   8.471  1.00  0.00    -0.228 NA
ATOM      7  C   GLU     4       3.642 -19.647   9.378  1.00  0.00     0.274 C 
ATOM      8  O   GLU     4       3.414 -20.027  10.519  1.00  0.00    -0.268 OA
BRANCH   7   9
ATOM      9  CA  GLU     4       5.082 -19.687   8.828  1.00  0.00     0.187 C 
BRANCH   9  10
ATOM     10  CB  GLU     4       5.710 -21.062   9.111  1.00  0.00     0.045 C 
BRANCH  10  11
ATOM     11  CG  GLU     4       4.724 -22.223   9.369  1.00  0.00     0.100 C 
BRANCH  11  12
ATOM     12  CD  GLU     4       5.390 -23.589   9.528  1.00  0.00     0.185 C 
ATOM     13  OE1 GLU     4       6.645 -23.614   9.620  1.00  0.00    -0.647 OA
ATOM     14  OE2 GLU     4       4.758 -24.575   9.097  1.00  0.00    -0.647 OA
ENDBRANCH  11  12
ENDBRANCH  10  11
ENDBRANCH   9  10
BRANCH   9  15
ATOM     15  N   GLU     4       5.954 -18.644   9.401  1.00  0.00    -0.229 NA
ATOM     16  C   PRO     3       7.108 -18.189   8.927  1.00  0.00     0.272 C 
ATOM     17  O   PRO     3       7.447 -18.301   7.748  1.00  0.00    -0.269 OA
BRANCH  16  18
ATOM     18  CA  PRO     3       7.773 -17.095   9.766  1.00  0.00     0.165 C 
ATOM     19  N   PRO     3       9.218 -16.912   9.516  1.00  0.00    -0.312 N 
ATOM     20  CD  PRO     3       9.544 -15.463   9.517  1.00  0.00     0.105 C 
ATOM     21  C   ASP     2      10.105 -17.922   9.458  1.00  0.00     0.257 C 
ATOM     22  CG  PRO     3       8.254 -14.783  10.000  1.00  0.00     0.027 C 
ATOM     23  CB  PRO     3       7.149 -15.723   9.526  1.00  0.00     0.034 C 
ATOM     24  O   ASP     2       9.782 -19.061   9.828  1.00  0.00    -0.270 OA
BRANCH  21  25
ATOM     25  CA  ASP     2      11.607 -17.605   9.276  1.00  0.00     0.195 C 
BRANCH  25  26
ATOM     26  CB  ASP     2      11.961 -16.526   8.221  1.00  0.00     0.132 C 
BRANCH  26  27
ATOM     27  CG  ASP     2      12.971 -15.518   8.800  1.00  0.00     0.188 C 
ATOM     28  OD2 ASP     2      12.564 -14.849   9.785  1.00  0.00    -0.647 OA
ATOM     29  OD1 ASP     2      13.802 -15.026   7.997  1.00  0.00    -0.647 OA
ENDBRANCH  26  27
ENDBRANCH  25  26
BRANCH  25  30
ATOM     30  N   ASP     2      12.365 -18.775   8.801  1.00  0.00    -0.228 NA
ATOM     31  C   TYR     1      13.047 -19.621   9.539  1.00  0.00     0.289 C 
ATOM     32  O   TYR     1      13.085 -19.696  10.771  1.00  0.00    -0.268 OA
BRANCH  31  33
ATOM     33  CA  TYR     1      13.880 -20.576   8.690  1.00  0.00     0.385 C 
ATOM     34  N   TYR     1      14.794 -19.767   7.866  1.00  0.00     0.626 N 
BRANCH  33  35
ATOM     35  CB  TYR     1      14.624 -21.504   9.647  1.00  0.00     0.075 C 
BRANCH  35  36
ATOM     36  CG  TYR     1      14.631 -22.968   9.181  1.00  0.00    -0.019 A 
ATOM     37  CD2 TYR     1      15.804 -23.598   8.795  1.00  0.00    -0.002 A 
ATOM     38  CE2 TYR     1      15.806 -24.955   8.509  1.00  0.00     0.027 A 
ATOM     39  CZ  TYR     1      14.614 -25.672   8.607  1.00  0.00     0.131 A 
ATOM     40  CE1 TYR     1      13.439 -25.028   8.953  1.00  0.00     0.027 A 
ATOM     41  OH  TYR     1      14.622 -27.017   8.518  1.00  0.00    -0.190 OA
ATOM     42  CD1 TYR     1      13.437 -23.672   9.239  1.00  0.00    -0.002 A 
ENDBRANCH  35  36
ENDBRANCH  33  35
ENDBRANCH  31  33
ENDBRANCH  25  30
ENDBRANCH  21  25
ENDBRANCH  16  18
ENDBRANCH   9  15
ENDBRANCH   7   9
ENDBRANCH   5   6
BRANCH   5  43
ATOM     43  CB  TYR     5       0.958 -20.661   9.795  1.00  0.00     0.060 C 
BRANCH  43  44
ATOM     44  CG  TYR     5       0.656 -21.989   9.079  1.00  0.00    -0.020 A 
ATOM     45  CD2 TYR     5      -0.437 -22.100   8.229  1.00  0.00    -0.002 A 
ATOM     46  CE2 TYR     5      -0.698 -23.303   7.580  1.00  0.00     0.027 A 
ATOM     47  CZ  TYR     5       0.133 -24.394   7.781  1.00  0.00     0.131 A 
ATOM     48  CE1 TYR     5       1.239 -24.286   8.617  1.00  0.00     0.027 A 
ATOM     49  OH  TYR     5      -0.191 -25.601   7.268  1.00  0.00    -0.190 OA
ATOM     50  CD1 TYR     5       1.494 -23.081   9.273  1.00  0.00    -0.002 A 
ENDBRANCH  43  44
ENDBRANCH   5  43
ENDBRANCH   3   5
ENDBRANCH   1   2
BRANCH   1  51
ATOM     51  CB  ARG     6      -0.861 -15.538   9.230  1.00  0.00     0.036 C 
BRANCH  51  52
ATOM     52  CG  ARG     6      -0.284 -14.529  10.227  1.00  0.00     0.029 C 
BRANCH  52  53
ATOM     53  CD  ARG     6      -1.263 -14.296  11.374  1.00  0.00     0.145 C 
BRANCH  53  54
ATOM     54  NE  ARG     6      -1.743 -12.904  11.384  1.00  0.00    -0.083 NA
ATOM     55  CZ  ARG     6      -2.762 -12.424  10.646  1.00  0.00     0.782 C 
ATOM     56  NH2 ARG     6      -3.061 -11.123  10.669  1.00  0.00     0.063 N 
ATOM     57  NH1 ARG     6      -3.427 -13.223   9.820  1.00  0.00     0.063 N 
ENDBRANCH  53  54
ENDBRANCH  52  53
ENDBRANCH  51  52
ENDBRANCH   1  51
BRANCH   1  58
ATOM     58  C   ARG     6      -2.861 -16.878   9.700  1.00  0.00     0.274 C 
ATOM     59  N   ASN     7      -3.455 -18.005  10.081  1.00  0.00    -0.228 NA
ATOM     60  O   ARG     6      -3.440 -15.900   9.224  1.00  0.00    -0.268 OA
BRANCH  59  61
ATOM     61  CA  ASN     7      -4.920 -18.197  10.077  1.00  0.00     0.196 C 
BRANCH  61  62
ATOM     62  C   ASN     7      -5.307 -19.619  10.529  1.00  0.00     0.275 C 
ATOM     63  N   PHE     8      -6.612 -19.928  10.509  1.00  0.00    -0.228 NA
ATOM     64  O   ASN     7      -4.436 -20.466  10.498  1.00  0.00    -0.268 OA
BRANCH  63  65
ATOM     65  CA  PHE     8      -7.172 -21.265  10.823  1.00  0.00     0.191 C 
BRANCH  65  66
ATOM     66  CB  PHE     8      -8.690 -21.121  11.001  1.00  0.00     0.060 C 
BRANCH  66  67
ATOM     67  CG  PHE     8      -9.411 -20.466   9.808  1.00  0.00    -0.020 A 
ATOM     68  CD1 PHE     8     -10.795 -20.535   9.712  1.00  0.00    -0.004 A 
ATOM     69  CE1 PHE     8     -11.438 -20.031   8.582  1.00  0.00    -0.000 A 
ATOM     70  CZ  PHE     8     -10.694 -19.452   7.568  1.00  0.00    -0.000 A 
ATOM     71  CE2 PHE     8      -9.309 -19.369   7.667  1.00  0.00    -0.000 A 
ATOM     72  CD2 PHE     8      -8.665 -19.873   8.798  1.00  0.00    -0.004 A 
ENDBRANCH  66  67
ENDBRANCH  65  66
BRANCH  65  73
ATOM     73  C   PHE     8      -6.819 -22.375   9.807  1.00  0.00     0.275 C 
ATOM     74  N   TRP     9      -6.190 -23.446  10.294  1.00  0.00    -0.228 NA
ATOM     75  O   PHE     8      -6.886 -22.168   8.593  1.00  0.00    -0.268 OA
BRANCH  74  76
ATOM     76  CA  TRP     9      -5.903 -24.638   9.458  1.00  0.00     0.191 C 
BRANCH  76  77
ATOM     77  CB  TRP     9      -4.498 -24.490   8.851  1.00  0.00     0.062 C 
BRANCH  77  78
ATOM     78  CG  TRP     9      -3.378 -24.662   9.877  1.00  0.00     0.001 A 
ATOM     79  CD1 TRP     9      -2.837 -23.694  10.612  1.00  0.00     0.095 A 
ATOM     80  NE1 TRP     9      -1.713 -24.128  11.167  1.00  0.00    -0.244 NA
ATOM     81  CE2 TRP     9      -1.508 -25.391  10.823  1.00  0.00     0.081 A 
ATOM     82  CD2 TRP     9      -2.544 -25.770   9.985  1.00  0.00     0.015 A 
ATOM     83  CZ2 TRP     9      -0.455 -26.276  11.054  1.00  0.00     0.019 A 
ATOM     84  CE3 TRP     9      -2.538 -27.010   9.363  1.00  0.00     0.001 A 
ATOM     85  CZ3 TRP     9      -1.482 -27.889   9.582  1.00  0.00     0.000 A 
ATOM     86  CH2 TRP     9      -0.451 -27.522  10.445  1.00  0.00     0.002 A 
ENDBRANCH  77  78
ENDBRANCH  76  77
BRANCH  76  87
ATOM     87  C   TRP     9      -6.069 -25.989  10.189  1.00  0.00     0.275 C 
ATOM     88  O   TRP     9      -6.307 -26.030  11.392  1.00  0.00    -0.268 OA
ATOM     89  N   GLY    10      -6.038 -27.080   9.424  1.00  0.00    -0.226 NA
BRANCH  89  90
ATOM     90  CA  GLY    10      -6.222 -28.466   9.933  1.00  0.00     0.218 C 
BRANCH  90  91
ATOM     91  C   GLY    10      -7.574 -29.132   9.627  1.00  0.00     0.277 C 
ATOM     92  N   CYS    11      -8.594 -28.290   9.472  1.00  0.00    -0.228 NA
ATOM     93  O   GLY    10      -7.700 -30.349   9.701  1.00  0.00    -0.268 OA
BRANCH  92  94
ATOM     94  CA  CYS    11      -9.993 -28.649   9.150  1.00  0.00     0.198 C 
BRANCH  94  95
ATOM     95  C   CYS    11     -10.538 -27.607   8.153  1.00  0.00     0.275 C 
ATOM     96  O   CYS    11     -11.303 -27.973   7.267  1.00  0.00    -0.268 OA
ATOM     97  N   GLY    12      -9.980 -26.407   8.204  1.00  0.00    -0.225 NA
BRANCH  97  98
ATOM     98  CA  GLY    12     -10.371 -25.303   7.313  1.00  0.00     0.226 C 
BRANCH  98  99
ATOM     99  C   GLY    12     -10.616 -24.050   8.185  1.00  0.00     0.211 C 
ATOM    100  O1  GLY    12     -10.231 -24.110   9.380  1.00  0.00    -0.646 OA
ATOM    101  O2  GLY    12     -11.141 -23.059   7.643  1.00  0.00    -0.646 OA
ENDBRANCH  98  99
ENDBRANCH  97  98
ENDBRANCH  94  95
BRANCH  94 102
ATOM    102  CB  CYS    11     -10.868 -28.524  10.396  1.00  0.00     0.103 C 
ATOM    103  SG  CYS    11     -12.023 -29.912  10.715  1.00  0.00    -0.080 SA
ENDBRANCH  94 102
ENDBRANCH  92  94
ENDBRANCH  90  91
ENDBRANCH  89  90
ENDBRANCH  76  87
ENDBRANCH  74  76
ENDBRANCH  65  73
ENDBRANCH  63  65
ENDBRANCH  61  62
BRANCH  61 104
ATOM    104  CB  ASN     7      -5.519 -17.879   8.702  1.00  0.00     0.126 C 
BRANCH 104 105
ATOM    105  CG  ASN     7      -6.508 -16.698   8.683  1.00  0.00     0.276 C 
ATOM    106  ND2 ASN     7      -6.869 -16.231   9.856  1.00  0.00    -0.107 N 
ATOM    107  OD1 ASN     7      -7.085 -16.280   7.687  1.00  0.00    -0.269 OA
ENDBRANCH 104 105
ENDBRANCH  61 104
ENDBRANCH  59  61
ENDBRANCH   1  58
TORSDOF 42
ENDMDL
MODEL 9
REMARK VINA RESULT:      -2.9     20.708     28.305
REMARK WARNING: 32 MAX_TORS EXCEEDED!!!
REMARK  42 active torsions:
REMARK  status: ('A' for Active; 'I' for Inactive)
REMARK    1  A    between atoms: CA_2  and  CB_3 
REMARK    2  A    between atoms: CA_2  and  C_11 
REMARK    3  A    between atoms: CB_3  and  CG_4 
REMARK       I    between atoms: C_11  and  N_13 
REMARK    4  A    between atoms: N_13  and  CA_14 
REMARK    5  A    between atoms: CA_14  and  CB_15 
REMARK    6  A    between atoms: CA_14  and  C_19 
REMARK    7  A    between atoms: CB_15  and  CG_16 
REMARK       I    between atoms: C_19  and  N_21 
REMARK    8  A    between atoms: CA_22  and  C_26 
REMARK       I    between atoms: C_26  and  N_28 
REMARK    9  A    between atoms: N_28  and  CA_29 
REMARK   10  A    between atoms: CA_29  and  C_35 
REMARK   11  A    between atoms: CA_29  and  CB_30 
REMARK   12  A    between atoms: CB_30  and  CG_31 
REMARK   13  A    between atoms: CG_31  and  CD_32 
REMARK       I    between atoms: C_35  and  N_37 
REMARK   14  A    between atoms: N_37  and  CA_38 
REMARK   15  A    between atoms: CA_38  and  CB_39 
REMARK   16  A    between atoms: CA_38  and  C_47 
REMARK   17  A    between atoms: CB_39  and  CG_40 
REMARK       I    between atoms: C_47  and  N_49 
REMARK   18  A    between atoms: N_49  and  CA_50 
REMARK   19  A    between atoms: CA_50  and  CB_51 
REMARK   20  A    between atoms: CA_50  and  C_58 
REMARK   21  A    between atoms: CB_51  and  CG_52 
REMARK   22  A    between atoms: CG_52  and  CD_53 
REMARK   23  A    between atoms: CD_53  and  NE_54 
REMARK       I    between atoms: C_58  and  N_60 
REMARK   24  A    between atoms: N_60  and  CA_61 
REMARK   25  A    between atoms: CA_61  and  C_66 
REMARK   26  A    between atoms: CA_61  and  CB_62 
REMARK   27  A    between atoms: CB_62  and  CG_63 
REMARK       I    between atoms: C_66  and  N_68 
REMARK   28  A    between atoms: N_68  and  CA_69 
REMARK   29  A    between atoms: CA_69  and  CB_70 
REMARK   30  A    between atoms: CA_69  and  C_77 
REMARK   31  A    between atoms: CB_70  and  CG_71 
REMARK       I    between atoms: C_77  and  N_79 
REMARK   32  A    between atoms: N_79  and  CA_80 
REMARK   33  A    between atoms: CA_80  and  CB_81 
REMARK   34  A    between atoms: CA_80  and  C_91 
REMARK   35  A    between atoms: CB_81  and  CG_82 
REMARK       I    between atoms: C_91  and  N_93 
REMARK   36  A    between atoms: N_93  and  CA_94 
REMARK   37  A    between atoms: CA_94  and  C_95 
REMARK       I    between atoms: C_95  and  N_97 
REMARK   38  A    between atoms: N_97  and  CA_98 
REMARK   39  A    between atoms: CA_98  and  C_101 
REMARK   40  A    between atoms: CA_98  and  CB_99 
REMARK       I    between atoms: C_101  and  N_103 
REMARK   41  A    between atoms: N_103  and  CA_104 
REMARK   42  A    between atoms: CA_104  and  C_105 
ROOT
ATOM      1  CA  ARG     6      -2.037 -16.426   9.920  1.00  0.00     0.186 C 
ENDROOT
BRANCH   1   2
ATOM      2  N   ARG     6      -1.473 -17.541   9.124  1.00  0.00    -0.229 NA
ATOM      3  C   TYR     5      -0.667 -18.468   9.657  1.00  0.00     0.275 C 
ATOM      4  O   TYR     5      -0.366 -18.472  10.851  1.00  0.00    -0.268 OA
BRANCH   3   5
ATOM      5  CA  TYR     5      -0.211 -19.613   8.737  1.00  0.00     0.191 C 
BRANCH   5   6
ATOM      6  N   TYR     5       1.260 -19.822   8.736  1.00  0.00    -0.228 NA
ATOM      7  C   GLU     4       1.918 -20.416   9.745  1.00  0.00     0.274 C 
ATOM      8  O   GLU     4       1.342 -20.956  10.681  1.00  0.00    -0.268 OA
BRANCH   7   9
ATOM      9  CA  GLU     4       3.420 -20.677   9.513  1.00  0.00     0.187 C 
BRANCH   9  10
ATOM     10  CB  GLU     4       3.916 -21.766  10.479  1.00  0.00     0.045 C 
BRANCH  10  11
ATOM     11  CG  GLU     4       5.233 -22.474  10.093  1.00  0.00     0.100 C 
BRANCH  11  12
ATOM     12  CD  GLU     4       5.057 -23.919   9.628  1.00  0.00     0.185 C 
ATOM     13  OE1 GLU     4       5.883 -24.768  10.054  1.00  0.00    -0.647 OA
ATOM     14  OE2 GLU     4       4.457 -24.092   8.548  1.00  0.00    -0.647 OA
ENDBRANCH  11  12
ENDBRANCH  10  11
ENDBRANCH   9  10
BRANCH   9  15
ATOM     15  N   GLU     4       4.255 -19.473   9.693  1.00  0.00    -0.229 NA
ATOM     16  C   PRO     3       4.744 -18.668   8.757  1.00  0.00     0.272 C 
ATOM     17  O   PRO     3       4.274 -18.586   7.622  1.00  0.00    -0.269 OA
BRANCH  16  18
ATOM     18  CA  PRO     3       5.581 -17.497   9.276  1.00  0.00     0.165 C 
ATOM     19  N   PRO     3       6.898 -17.336   8.623  1.00  0.00    -0.312 N 
ATOM     20  CD  PRO     3       7.172 -15.894   8.399  1.00  0.00     0.105 C 
ATOM     21  C   ASP     2       7.764 -18.346   8.419  1.00  0.00     0.257 C 
ATOM     22  CG  PRO     3       6.043 -15.172   9.152  1.00  0.00     0.027 C 
ATOM     23  CB  PRO     3       4.877 -16.155   9.088  1.00  0.00     0.034 C 
ATOM     24  O   ASP     2       7.586 -19.444   8.969  1.00  0.00    -0.270 OA
BRANCH  21  25
ATOM     25  CA  ASP     2       9.150 -18.047   7.804  1.00  0.00     0.195 C 
BRANCH  25  26
ATOM     26  CB  ASP     2       9.966 -19.272   7.318  1.00  0.00     0.132 C 
BRANCH  26  27
ATOM     27  CG  ASP     2      10.326 -20.184   8.505  1.00  0.00     0.188 C 
ATOM     28  OD2 ASP     2      11.464 -20.718   8.453  1.00  0.00    -0.647 OA
ATOM     29  OD1 ASP     2       9.373 -20.773   9.073  1.00  0.00    -0.647 OA
ENDBRANCH  26  27
ENDBRANCH  25  26
BRANCH  25  30
ATOM     30  N   ASP     2      10.063 -17.421   8.776  1.00  0.00    -0.228 NA
ATOM     31  C   TYR     1      10.849 -16.392   8.562  1.00  0.00     0.289 C 
ATOM     32  O   TYR     1      10.891 -15.659   7.569  1.00  0.00    -0.268 OA
BRANCH  31  33
ATOM     33  CA  TYR     1      11.810 -16.157   9.724  1.00  0.00     0.385 C 
ATOM     34  N   TYR     1      11.065 -15.472  10.794  1.00  0.00     0.626 N 
BRANCH  33  35
ATOM     35  CB  TYR     1      12.338 -17.521  10.162  1.00  0.00     0.075 C 
BRANCH  35  36
ATOM     36  CG  TYR     1      13.684 -17.880   9.514  1.00  0.00    -0.019 A 
ATOM     37  CD2 TYR     1      14.397 -19.003   9.905  1.00  0.00    -0.002 A 
ATOM     38  CE2 TYR     1      15.539 -19.379   9.213  1.00  0.00     0.027 A 
ATOM     39  CZ  TYR     1      15.961 -18.612   8.128  1.00  0.00     0.131 A 
ATOM     40  CE1 TYR     1      15.267 -17.470   7.769  1.00  0.00     0.027 A 
ATOM     41  OH  TYR     1      16.951 -19.056   7.328  1.00  0.00    -0.190 OA
ATOM     42  CD1 TYR     1      14.126 -17.094   8.460  1.00  0.00    -0.002 A 
ENDBRANCH  35  36
ENDBRANCH  33  35
ENDBRANCH  31  33
ENDBRANCH  25  30
ENDBRANCH  21  25
ENDBRANCH  16  18
ENDBRANCH   9  15
ENDBRANCH   7   9
ENDBRANCH   5   6
BRANCH   5  43
ATOM     43  CB  TYR     5      -0.930 -20.924   9.095  1.00  0.00     0.060 C 
BRANCH  43  44
ATOM     44  CG  TYR     5      -2.375 -20.960   8.567  1.00  0.00    -0.020 A 
ATOM     45  CD2 TYR     5      -3.019 -19.789   8.191  1.00  0.00    -0.002 A 
ATOM     46  CE2 TYR     5      -4.324 -19.833   7.708  1.00  0.00     0.027 A 
ATOM     47  CZ  TYR     5      -4.983 -21.047   7.602  1.00  0.00     0.131 A 
ATOM     48  CE1 TYR     5      -4.339 -22.226   7.959  1.00  0.00     0.027 A 
ATOM     49  OH  TYR     5      -6.292 -21.084   7.267  1.00  0.00    -0.190 OA
ATOM     50  CD1 TYR     5      -3.034 -22.179   8.451  1.00  0.00    -0.002 A 
ENDBRANCH  43  44
ENDBRANCH   5  43
ENDBRANCH   3   5
ENDBRANCH   1   2
BRANCH   1  51
ATOM     51  CB  ARG     6      -1.169 -15.172   9.884  1.00  0.00     0.036 C 
BRANCH  51  52
ATOM     52  CG  ARG     6      -0.873 -14.589  11.267  1.00  0.00     0.029 C 
BRANCH  52  53
ATOM     53  CD  ARG     6      -1.401 -13.161  11.367  1.00  0.00     0.145 C 
BRANCH  53  54
ATOM     54  NE  ARG     6      -2.873 -13.142  11.382  1.00  0.00    -0.083 NA
ATOM     55  CZ  ARG     6      -3.645 -12.089  11.055  1.00  0.00     0.782 C 
ATOM     56  NH2 ARG     6      -4.972 -12.154  11.184  1.00  0.00     0.063 N 
ATOM     57  NH1 ARG     6      -3.090 -10.941  10.681  1.00  0.00     0.063 N 
ENDBRANCH  53  54
ENDBRANCH  52  53
ENDBRANCH  51  52
ENDBRANCH   1  51
BRANCH   1  58
ATOM     58  C   ARG     6      -3.432 -16.009   9.440  1.00  0.00     0.274 C 
ATOM     59  N   ASN     7      -4.430 -16.814   9.796  1.00  0.00    -0.228 NA
ATOM     60  O   ARG     6      -3.555 -14.985   8.766  1.00  0.00    -0.268 OA
BRANCH  59  61
ATOM     61  CA  ASN     7      -5.851 -16.525   9.511  1.00  0.00     0.196 C 
BRANCH  61  62
ATOM     62  C   ASN     7      -6.778 -17.606  10.101  1.00  0.00     0.275 C 
ATOM     63  N   PHE     8      -8.085 -17.505   9.817  1.00  0.00    -0.228 NA
ATOM     64  O   ASN     7      -6.263 -18.655  10.437  1.00  0.00    -0.268 OA
BRANCH  63  65
ATOM     65  CA  PHE     8      -9.119 -18.490  10.219  1.00  0.00     0.191 C 
BRANCH  65  66
ATOM     66  CB  PHE     8     -10.191 -17.756  11.036  1.00  0.00     0.060 C 
BRANCH  66  67
ATOM     67  CG  PHE     8     -11.024 -16.743  10.228  1.00  0.00    -0.020 A 
ATOM     68  CD1 PHE     8     -10.519 -15.474   9.979  1.00  0.00    -0.004 A 
ATOM     69  CE1 PHE     8     -11.314 -14.525   9.336  1.00  0.00    -0.000 A 
ATOM     70  CZ  PHE     8     -12.598 -14.860   8.937  1.00  0.00    -0.000 A 
ATOM     71  CE2 PHE     8     -13.101 -16.135   9.174  1.00  0.00    -0.000 A 
ATOM     72  CD2 PHE     8     -12.306 -17.084   9.817  1.00  0.00    -0.004 A 
ENDBRANCH  66  67
ENDBRANCH  65  66
BRANCH  65  73
ATOM     73  C   PHE     8      -9.740 -19.296   9.055  1.00  0.00     0.275 C 
ATOM     74  N   TRP     9      -9.515 -20.611   9.057  1.00  0.00    -0.228 NA
ATOM     75  O   PHE     8     -10.192 -18.725   8.060  1.00  0.00    -0.268 OA
BRANCH  74  76
ATOM     76  CA  TRP     9     -10.151 -21.520   8.073  1.00  0.00     0.191 C 
BRANCH  76  77
ATOM     77  CB  TRP     9      -9.256 -22.757   7.890  1.00  0.00     0.062 C 
BRANCH  77  78
ATOM     78  CG  TRP     9      -8.609 -23.230   9.191  1.00  0.00     0.001 A 
ATOM     79  CD1 TRP     9      -7.690 -22.570   9.890  1.00  0.00     0.095 A 
ATOM     80  NE1 TRP     9      -7.139 -23.381  10.784  1.00  0.00    -0.244 NA
ATOM     81  CE2 TRP     9      -7.699 -24.579  10.700  1.00  0.00     0.081 A 
ATOM     82  CD2 TRP     9      -8.638 -24.531   9.682  1.00  0.00     0.015 A 
ATOM     83  CZ2 TRP     9      -7.436 -25.793  11.334  1.00  0.00     0.019 A 
ATOM     84  CE3 TRP     9      -9.306 -25.677   9.277  1.00  0.00     0.001 A 
ATOM     85  CZ3 TRP     9      -9.036 -26.892   9.899  1.00  0.00     0.000 A 
ATOM     86  CH2 TRP     9      -8.112 -26.939  10.941  1.00  0.00     0.002 A 
ENDBRANCH  77  78
ENDBRANCH  76  77
BRANCH  76  87
ATOM     87  C   TRP     9     -11.606 -21.915   8.411  1.00  0.00     0.275 C 
ATOM     88  O   TRP     9     -12.439 -22.072   7.524  1.00  0.00    -0.268 OA
ATOM     89  N   GLY    10     -11.864 -22.167   9.694  1.00  0.00    -0.226 NA
BRANCH  89  90
ATOM     90  CA  GLY    10     -13.190 -22.602  10.212  1.00  0.00     0.218 C 
BRANCH  90  91
ATOM     91  C   GLY    10     -13.729 -23.938   9.674  1.00  0.00     0.277 C 
ATOM     92  N   CYS    11     -15.057 -24.034   9.633  1.00  0.00    -0.228 NA
ATOM     93  O   GLY    10     -12.972 -24.880   9.475  1.00  0.00    -0.268 OA
BRANCH  92  94
ATOM     94  CA  CYS    11     -15.843 -25.188   9.143  1.00  0.00     0.198 C 
BRANCH  94  95
ATOM     95  C   CYS    11     -17.288 -24.713   8.895  1.00  0.00     0.275 C 
ATOM     96  O   CYS    11     -17.835 -24.995   7.835  1.00  0.00    -0.268 OA
ATOM     97  N   GLY    12     -17.777 -23.852   9.776  1.00  0.00    -0.225 NA
BRANCH  97  98
ATOM     98  CA  GLY    12     -19.132 -23.288   9.679  1.00  0.00     0.226 C 
BRANCH  98  99
ATOM     99  C   GLY    12     -19.032 -21.929   8.949  1.00  0.00     0.211 C 
ATOM    100  O1  GLY    12     -18.425 -21.924   7.848  1.00  0.00    -0.646 OA
ATOM    101  O2  GLY    12     -19.584 -20.945   9.475  1.00  0.00    -0.646 OA
ENDBRANCH  98  99
ENDBRANCH  97  98
ENDBRANCH  94  95
BRANCH  94 102
ATOM    102  CB  CYS    11     -15.941 -26.257  10.229  1.00  0.00     0.103 C 
ATOM    103  SG  CYS    11     -17.515 -27.197  10.298  1.00  0.00    -0.080 SA
ENDBRANCH  94 102
ENDBRANCH  92  94
ENDBRANCH  90  91
ENDBRANCH  89  90
ENDBRANCH  76  87
ENDBRANCH  74  76
ENDBRANCH  65  73
ENDBRANCH  63  65
ENDBRANCH  61  62
BRANCH  61 104
ATOM    104  CB  ASN     7      -6.094 -16.360   8.006  1.00  0.00     0.126 C 
BRANCH 104 105
ATOM    105  CG  ASN     7      -6.780 -15.043   7.601  1.00  0.00     0.276 C 
ATOM    106  ND2 ASN     7      -5.997 -13.994   7.495  1.00  0.00    -0.107 N 
ATOM    107  OD1 ASN     7      -7.991 -14.874   7.528  1.00  0.00    -0.269 OA
ENDBRANCH 104 105
ENDBRANCH  61 104
ENDBRANCH  59  61
ENDBRANCH   1  58
TORSDOF 42
ENDMDL
