MODEL 1
REMARK VINA RESULT:      -3.7      0.000      0.000
REMARK WARNING: 32 MAX_TORS EXCEEDED!!!
REMARK  33 active torsions:
REMARK  status: ('A' for Active; 'I' for Inactive)
REMARK    1  A    between atoms: CA_2  and  C_8 
REMARK    2  A    between atoms: CA_2  and  CB_3 
REMARK    3  A    between atoms: CB_3  and  CG_4 
REMARK    4  A    between atoms: CG_4  and  CD_5 
REMARK       I    between atoms: C_8  and  N_10 
REMARK    5  A    between atoms: N_10  and  CA_11 
REMARK    6  A    between atoms: CA_11  and  C_12 
REMARK       I    between atoms: C_12  and  N_14 
REMARK    7  A    between atoms: N_14  and  CA_15 
REMARK    8  A    between atoms: CA_15  and  C_20 
REMARK    9  A    between atoms: CA_15  and  CB_16 
REMARK   10  A    between atoms: CB_16  and  CG_17 
REMARK       I    between atoms: C_20  and  N_22 
REMARK   11  A    between atoms: N_22  and  CA_23 
REMARK   12  A    between atoms: CA_23  and  CB_24 
REMARK   13  A    between atoms: CA_23  and  C_28 
REMARK   14  A    between atoms: CB_24  and  CG_25 
REMARK       I    between atoms: C_28  and  N_30 
REMARK   15  A    between atoms: N_30  and  CA_31 
REMARK   16  A    between atoms: CA_31  and  CB_32 
REMARK   17  A    between atoms: CA_31  and  C_39 
REMARK   18  A    between atoms: CB_32  and  CG_33 
REMARK   19  A    between atoms: CG_33  and  CD_34 
REMARK   20  A    between atoms: CD_34  and  NE_35 
REMARK       I    between atoms: C_39  and  N_41 
REMARK   21  A    between atoms: CA_42  and  C_46 
REMARK       I    between atoms: C_46  and  N_48 
REMARK   22  A    between atoms: N_48  and  CA_49 
REMARK   23  A    between atoms: CA_49  and  C_52 
REMARK   24  A    between atoms: CA_49  and  CB_50 
REMARK       I    between atoms: C_52  and  N_54 
REMARK   25  A    between atoms: N_54  and  CA_55 
REMARK   26  A    between atoms: CA_55  and  C_56 
REMARK       I    between atoms: C_56  and  N_58 
REMARK   27  A    between atoms: N_58  and  CA_59 
REMARK   28  A    between atoms: CA_59  and  C_60 
REMARK       I    between atoms: C_60  and  N_62 
REMARK   29  A    between atoms: N_62  and  CA_63 
REMARK   30  A    between atoms: CA_63  and  CB_64 
REMARK   31  A    between atoms: CA_63  and  C_66 
REMARK       I    between atoms: C_66  and  N_68 
REMARK   32  A    between atoms: N_68  and  CA_69 
REMARK   33  A    between atoms: CA_69  and  C_70 
ROOT
ATOM      1  CA  ARG     5      -3.741 -15.598  10.100  1.00  0.00     0.185 C 
ENDROOT
BRANCH   1   2
ATOM      2  N   ARG     5      -2.414 -16.238  10.151  1.00  0.00    -0.229 NA
ATOM      3  C   ASN     4      -2.176 -17.533  10.013  1.00  0.00     0.275 C 
ATOM      4  O   ASN     4      -3.038 -18.403  10.077  1.00  0.00    -0.268 OA
BRANCH   3   5
ATOM      5  CA  ASN     4      -0.674 -17.875  10.104  1.00  0.00     0.196 C 
BRANCH   5   6
ATOM      6  N   ASN     4      -0.462 -19.333   9.984  1.00  0.00    -0.228 NA
ATOM      7  C   LEU     3      -0.411 -19.968   8.815  1.00  0.00     0.274 C 
ATOM      8  O   LEU     3      -0.522 -19.427   7.711  1.00  0.00    -0.268 OA
BRANCH   7   9
ATOM      9  CA  LEU     3      -0.130 -21.467   8.908  1.00  0.00     0.186 C 
BRANCH   9  10
ATOM     10  N   LEU     3       1.061 -21.696   9.756  1.00  0.00    -0.229 NA
ATOM     11  C   GLY     2       2.234 -22.106   9.264  1.00  0.00     0.277 C 
ATOM     12  O   GLY     2       2.470 -22.176   8.067  1.00  0.00    -0.268 OA
BRANCH  11  13
ATOM     13  CA  GLY     2       3.359 -22.331  10.295  1.00  0.00     0.218 C 
BRANCH  13  14
ATOM     14  N   GLY     2       4.485 -21.366  10.323  1.00  0.00    -0.226 NA
ATOM     15  C   GLU     1       5.676 -21.648   9.783  1.00  0.00     0.289 C 
ATOM     16  O   GLU     1       5.837 -22.645   9.099  1.00  0.00    -0.268 OA
BRANCH  15  17
ATOM     17  CA  GLU     1       6.838 -20.636   9.968  1.00  0.00     0.381 C 
ATOM     18  N   GLU     1       7.952 -20.836   9.025  1.00  0.00     0.626 N 
BRANCH  17  19
ATOM     19  CB  GLU     1       6.266 -19.208   9.864  1.00  0.00     0.060 C 
BRANCH  19  20
ATOM     20  CG  GLU     1       7.210 -18.005  10.014  1.00  0.00     0.100 C 
BRANCH  20  21
ATOM     21  CD  GLU     1       6.618 -16.708   9.442  1.00  0.00     0.185 C 
ATOM     22  OE1 GLU     1       5.381 -16.619   9.336  1.00  0.00    -0.647 OA
ATOM     23  OE2 GLU     1       7.398 -15.811   9.078  1.00  0.00    -0.647 OA
ENDBRANCH  20  21
ENDBRANCH  19  20
ENDBRANCH  17  19
ENDBRANCH  15  17
ENDBRANCH  13  14
ENDBRANCH  11  13
ENDBRANCH   9  10
BRANCH   9  24
ATOM     24  CB  LEU     3      -1.358 -22.162   9.508  1.00  0.00     0.034 C 
BRANCH  24  25
ATOM     25  CG  LEU     3      -1.203 -23.688   9.645  1.00  0.00     0.002 C 
ATOM     26  CD1 LEU     3      -2.565 -24.312   9.945  1.00  0.00     0.000 C 
ATOM     27  CD2 LEU     3      -0.612 -24.303   8.372  1.00  0.00     0.000 C 
ENDBRANCH  24  25
ENDBRANCH   9  24
ENDBRANCH   7   9
ENDBRANCH   5   6
BRANCH   5  28
ATOM     28  CB  ASN     4       0.140 -17.129   9.033  1.00  0.00     0.126 C 
BRANCH  28  29
ATOM     29  CG  ASN     4       1.664 -17.206   9.248  1.00  0.00     0.276 C 
ATOM     30  ND2 ASN     4       2.163 -16.401  10.148  1.00  0.00    -0.107 N 
ATOM     31  OD1 ASN     4       2.390 -18.001   8.682  1.00  0.00    -0.269 OA
ENDBRANCH  28  29
ENDBRANCH   5  28
ENDBRANCH   3   5
ENDBRANCH   1   2
BRANCH   1  32
ATOM     32  CB  ARG     5      -4.520 -15.871  11.392  1.00  0.00     0.036 C 
BRANCH  32  33
ATOM     33  CG  ARG     5      -5.652 -16.886  11.229  1.00  0.00     0.029 C 
BRANCH  33  34
ATOM     34  CD  ARG     5      -6.247 -16.763   9.830  1.00  0.00     0.145 C 
BRANCH  34  35
ATOM     35  NE  ARG     5      -6.790 -18.054   9.343  1.00  0.00    -0.083 NA
ATOM     36  CZ  ARG     5      -8.092 -18.316   9.161  1.00  0.00     0.782 C 
ATOM     37  NH2 ARG     5      -8.493 -19.409   8.490  1.00  0.00     0.063 N 
ATOM     38  NH1 ARG     5      -9.028 -17.450   9.523  1.00  0.00     0.063 N 
ENDBRANCH  34  35
ENDBRANCH  33  34
ENDBRANCH  32  33
ENDBRANCH   1  32
BRANCH   1  39
ATOM     39  C   ARG     5      -3.574 -14.079   9.910  1.00  0.00     0.256 C 
ATOM     40  O   ARG     5      -2.573 -13.512  10.358  1.00  0.00    -0.270 OA
ATOM     41  N   PRO     6      -4.490 -13.451   9.167  1.00  0.00    -0.312 N 
ATOM     42  CA  PRO     6      -4.499 -11.993   8.913  1.00  0.00     0.165 C 
ATOM     43  CD  PRO     6      -5.535 -14.113   8.355  1.00  0.00     0.105 C 
ATOM     44  CB  PRO     6      -5.776 -11.742   8.110  1.00  0.00     0.034 C 
ATOM     45  CG  PRO     6      -5.959 -13.045   7.344  1.00  0.00     0.027 C 
BRANCH  42  46
ATOM     46  C   PRO     6      -4.511 -11.195  10.227  1.00  0.00     0.272 C 
ATOM     47  N   SER     7      -5.594 -10.504  10.559  1.00  0.00    -0.226 NA
ATOM     48  O   PRO     6      -3.486 -11.113  10.910  1.00  0.00    -0.269 OA
BRANCH  47  49
ATOM     49  CA  SER     7      -6.850 -10.394   9.778  1.00  0.00     0.219 C 
BRANCH  49  50
ATOM     50  C   SER     7      -7.099  -8.956   9.289  1.00  0.00     0.277 C 
ATOM     51  O   SER     7      -7.891  -8.763   8.373  1.00  0.00    -0.268 OA
ATOM     52  N   GLY     8      -6.610  -7.992  10.057  1.00  0.00    -0.226 NA
BRANCH  52  53
ATOM     53  CA  GLY     8      -6.584  -6.572   9.617  1.00  0.00     0.218 C 
BRANCH  53  54
ATOM     54  C   GLY     8      -7.325  -5.532  10.476  1.00  0.00     0.277 C 
ATOM     55  N   GLY     9      -6.802  -4.299  10.531  1.00  0.00    -0.226 NA
ATOM     56  O   GLY     8      -8.366  -5.830  11.037  1.00  0.00    -0.268 OA
BRANCH  55  57
ATOM     57  CA  GLY     9      -7.383  -3.212  11.345  1.00  0.00     0.218 C 
BRANCH  57  58
ATOM     58  C   GLY     9      -7.058  -1.822  10.749  1.00  0.00     0.277 C 
ATOM     59  O   GLY     9      -5.904  -1.414  10.772  1.00  0.00    -0.268 OA
ATOM     60  N   CYS    10      -8.012  -0.986  10.364  1.00  0.00    -0.228 NA
BRANCH  60  61
ATOM     61  CA  CYS    10      -9.480  -1.174  10.454  1.00  0.00     0.198 C 
BRANCH  61  62
ATOM     62  CB  CYS    10     -10.250   0.142  10.291  1.00  0.00     0.103 C 
ATOM     63  SG  CYS    10      -9.288   1.692  10.220  1.00  0.00    -0.080 SA
ENDBRANCH  61  62
BRANCH  61  64
ATOM     64  C   CYS    10     -10.060  -2.090   9.374  1.00  0.00     0.275 C 
ATOM     65  O   CYS    10      -9.653  -1.988   8.218  1.00  0.00    -0.268 OA
ATOM     66  N   GLY    11     -10.726  -3.128   9.854  1.00  0.00    -0.225 NA
BRANCH  66  67
ATOM     67  CA  GLY    11     -11.886  -3.690   9.148  1.00  0.00     0.226 C 
BRANCH  67  68
ATOM     68  C   GLY    11     -11.446  -5.104   8.733  1.00  0.00     0.211 C 
ATOM     69  O2  GLY    11     -11.840  -6.029   9.475  1.00  0.00    -0.646 OA
ATOM     70  O1  GLY    11     -11.079  -5.242   7.544  1.00  0.00    -0.646 OA
ENDBRANCH  67  68
ENDBRANCH  66  67
ENDBRANCH  61  64
ENDBRANCH  60  61
ENDBRANCH  57  58
ENDBRANCH  55  57
ENDBRANCH  53  54
ENDBRANCH  52  53
ENDBRANCH  49  50
BRANCH  49  71
ATOM     71  CB  SER     7      -8.068 -10.812  10.605  1.00  0.00     0.216 C 
ATOM     72  OG  SER     7      -8.270 -12.221  10.495  1.00  0.00    -0.218 OA
ENDBRANCH  49  71
ENDBRANCH  47  49
ENDBRANCH  42  46
ENDBRANCH   1  39
TORSDOF 33
ENDMDL
MODEL 2
REMARK VINA RESULT:      -3.5      8.325     14.300
REMARK WARNING: 32 MAX_TORS EXCEEDED!!!
REMARK  33 active torsions:
REMARK  status: ('A' for Active; 'I' for Inactive)
REMARK    1  A    between atoms: CA_2  and  C_8 
REMARK    2  A    between atoms: CA_2  and  CB_3 
REMARK    3  A    between atoms: CB_3  and  CG_4 
REMARK    4  A    between atoms: CG_4  and  CD_5 
REMARK       I    between atoms: C_8  and  N_10 
REMARK    5  A    between atoms: N_10  and  CA_11 
REMARK    6  A    between atoms: CA_11  and  C_12 
REMARK       I    between atoms: C_12  and  N_14 
REMARK    7  A    between atoms: N_14  and  CA_15 
REMARK    8  A    between atoms: CA_15  and  C_20 
REMARK    9  A    between atoms: CA_15  and  CB_16 
REMARK   10  A    between atoms: CB_16  and  CG_17 
REMARK       I    between atoms: C_20  and  N_22 
REMARK   11  A    between atoms: N_22  and  CA_23 
REMARK   12  A    between atoms: CA_23  and  CB_24 
REMARK   13  A    between atoms: CA_23  and  C_28 
REMARK   14  A    between atoms: CB_24  and  CG_25 
REMARK       I    between atoms: C_28  and  N_30 
REMARK   15  A    between atoms: N_30  and  CA_31 
REMARK   16  A    between atoms: CA_31  and  CB_32 
REMARK   17  A    between atoms: CA_31  and  C_39 
REMARK   18  A    between atoms: CB_32  and  CG_33 
REMARK   19  A    between atoms: CG_33  and  CD_34 
REMARK   20  A    between atoms: CD_34  and  NE_35 
REMARK       I    between atoms: C_39  and  N_41 
REMARK   21  A    between atoms: CA_42  and  C_46 
REMARK       I    between atoms: C_46  and  N_48 
REMARK   22  A    between atoms: N_48  and  CA_49 
REMARK   23  A    between atoms: CA_49  and  C_52 
REMARK   24  A    between atoms: CA_49  and  CB_50 
REMARK       I    between atoms: C_52  and  N_54 
REMARK   25  A    between atoms: N_54  and  CA_55 
REMARK   26  A    between atoms: CA_55  and  C_56 
REMARK       I    between atoms: C_56  and  N_58 
REMARK   27  A    between atoms: N_58  and  CA_59 
REMARK   28  A    between atoms: CA_59  and  C_60 
REMARK       I    between atoms: C_60  and  N_62 
REMARK   29  A    between atoms: N_62  and  CA_63 
REMARK   30  A    between atoms: CA_63  and  CB_64 
REMARK   31  A    between atoms: CA_63  and  C_66 
REMARK       I    between atoms: C_66  and  N_68 
REMARK   32  A    between atoms: N_68  and  CA_69 
REMARK   33  A    between atoms: CA_69  and  C_70 
ROOT
ATOM      1  CA  ARG     5       8.667 -17.992  10.909  1.00  0.00     0.185 C 
ENDROOT
BRANCH   1   2
ATOM      2  N   ARG     5       9.124 -19.379  10.703  1.00  0.00    -0.229 NA
ATOM      3  C   ASN     4       9.525 -19.897   9.552  1.00  0.00     0.275 C 
ATOM      4  O   ASN     4       9.334 -19.376   8.458  1.00  0.00    -0.268 OA
BRANCH   3   5
ATOM      5  CA  ASN     4       9.953 -21.373   9.681  1.00  0.00     0.196 C 
BRANCH   5   6
ATOM      6  N   ASN     4      11.423 -21.501   9.592  1.00  0.00    -0.228 NA
ATOM      7  C   LEU     3      12.036 -22.625   9.230  1.00  0.00     0.274 C 
ATOM      8  O   LEU     3      11.465 -23.675   8.922  1.00  0.00    -0.268 OA
BRANCH   7   9
ATOM      9  CA  LEU     3      13.560 -22.530   9.149  1.00  0.00     0.186 C 
BRANCH   9  10
ATOM     10  N   LEU     3      14.057 -21.624  10.208  1.00  0.00    -0.229 NA
ATOM     11  C   GLY     2      14.795 -20.541   9.948  1.00  0.00     0.277 C 
ATOM     12  O   GLY     2      14.991 -20.120   8.818  1.00  0.00    -0.268 OA
BRANCH  11  13
ATOM     13  CA  GLY     2      15.260 -19.729  11.175  1.00  0.00     0.218 C 
BRANCH  13  14
ATOM     14  N   GLY     2      15.500 -18.276  11.001  1.00  0.00    -0.226 NA
ATOM     15  C   GLU     1      16.721 -17.781  10.769  1.00  0.00     0.289 C 
ATOM     16  O   GLU     1      17.663 -18.516  10.525  1.00  0.00    -0.268 OA
BRANCH  15  17
ATOM     17  CA  GLU     1      16.907 -16.241  10.727  1.00  0.00     0.381 C 
ATOM     18  N   GLU     1      18.258 -15.818  10.317  1.00  0.00     0.626 N 
BRANCH  17  19
ATOM     19  CB  GLU     1      15.828 -15.641   9.803  1.00  0.00     0.060 C 
BRANCH  19  20
ATOM     20  CG  GLU     1      16.109 -15.517   8.298  1.00  0.00     0.100 C 
BRANCH  20  21
ATOM     21  CD  GLU     1      15.852 -14.102   7.758  1.00  0.00     0.185 C 
ATOM     22  OE1 GLU     1      16.830 -13.355   7.571  1.00  0.00    -0.647 OA
ATOM     23  OE2 GLU     1      14.677 -13.748   7.560  1.00  0.00    -0.647 OA
ENDBRANCH  20  21
ENDBRANCH  19  20
ENDBRANCH  17  19
ENDBRANCH  15  17
ENDBRANCH  13  14
ENDBRANCH  11  13
ENDBRANCH   9  10
BRANCH   9  24
ATOM     24  CB  LEU     3      14.151 -23.934   9.322  1.00  0.00     0.034 C 
BRANCH  24  25
ATOM     25  CG  LEU     3      14.717 -24.201  10.728  1.00  0.00     0.002 C 
ATOM     26  CD1 LEU     3      13.958 -25.360  11.371  1.00  0.00     0.000 C 
ATOM     27  CD2 LEU     3      16.215 -24.522  10.671  1.00  0.00     0.000 C 
ENDBRANCH  24  25
ENDBRANCH   9  24
ENDBRANCH   7   9
ENDBRANCH   5   6
BRANCH   5  28
ATOM     28  CB  ASN     4       9.444 -21.995  10.993  1.00  0.00     0.126 C 
BRANCH  28  29
ATOM     29  CG  ASN     4       8.171 -22.846  10.822  1.00  0.00     0.276 C 
ATOM     30  ND2 ASN     4       8.304 -24.133  11.007  1.00  0.00    -0.107 N 
ATOM     31  OD1 ASN     4       7.070 -22.382  10.594  1.00  0.00    -0.269 OA
ENDBRANCH  28  29
ENDBRANCH   5  28
ENDBRANCH   3   5
ENDBRANCH   1   2
BRANCH   1  32
ATOM     32  CB  ARG     5       9.560 -17.012  10.140  1.00  0.00     0.036 C 
BRANCH  32  33
ATOM     33  CG  ARG     5      10.671 -16.392  10.989  1.00  0.00     0.029 C 
BRANCH  33  34
ATOM     34  CD  ARG     5      11.963 -16.347  10.179  1.00  0.00     0.145 C 
BRANCH  34  35
ATOM     35  NE  ARG     5      12.092 -17.516   9.275  1.00  0.00    -0.083 NA
ATOM     36  CZ  ARG     5      12.381 -17.443   7.967  1.00  0.00     0.782 C 
ATOM     37  NH2 ARG     5      12.723 -18.539   7.270  1.00  0.00     0.063 N 
ATOM     38  NH1 ARG     5      12.465 -16.277   7.343  1.00  0.00     0.063 N 
ENDBRANCH  34  35
ENDBRANCH  33  34
ENDBRANCH  32  33
ENDBRANCH   1  32
BRANCH   1  39
ATOM     39  C   ARG     5       7.212 -17.852  10.423  1.00  0.00     0.256 C 
ATOM     40  O   ARG     5       6.388 -18.730  10.697  1.00  0.00    -0.270 OA
ATOM     41  N   PRO     6       6.881 -16.715   9.804  1.00  0.00    -0.312 N 
ATOM     42  CA  PRO     6       5.539 -16.432   9.246  1.00  0.00     0.165 C 
ATOM     43  CD  PRO     6       7.731 -15.508   9.715  1.00  0.00     0.105 C 
ATOM     44  CB  PRO     6       5.679 -15.073   8.559  1.00  0.00     0.034 C 
ATOM     45  CG  PRO     6       6.751 -14.380   9.389  1.00  0.00     0.027 C 
BRANCH  42  46
ATOM     46  C   PRO     6       5.110 -17.514   8.241  1.00  0.00     0.272 C 
ATOM     47  N   SER     7       3.987 -18.187   8.449  1.00  0.00    -0.226 NA
ATOM     48  O   PRO     6       5.859 -17.824   7.310  1.00  0.00    -0.269 OA
BRANCH  47  49
ATOM     49  CA  SER     7       3.053 -18.024   9.589  1.00  0.00     0.219 C 
BRANCH  49  50
ATOM     50  C   SER     7       2.203 -19.286   9.822  1.00  0.00     0.277 C 
ATOM     51  O   SER     7       1.822 -19.553  10.956  1.00  0.00    -0.268 OA
ATOM     52  N   GLY     8       1.740 -19.880   8.730  1.00  0.00    -0.226 NA
BRANCH  52  53
ATOM     53  CA  GLY     8       1.087 -21.214   8.776  1.00  0.00     0.218 C 
BRANCH  53  54
ATOM     54  C   GLY     8      -0.449 -21.275   8.694  1.00  0.00     0.277 C 
ATOM     55  N   GLY     9      -1.134 -20.316   9.334  1.00  0.00    -0.226 NA
ATOM     56  O   GLY     8      -0.994 -22.144   8.034  1.00  0.00    -0.268 OA
BRANCH  55  57
ATOM     57  CA  GLY     9      -2.610 -20.270   9.375  1.00  0.00     0.218 C 
BRANCH  57  58
ATOM     58  C   GLY     9      -3.178 -19.343   8.274  1.00  0.00     0.277 C 
ATOM     59  O   GLY     9      -2.496 -19.094   7.288  1.00  0.00    -0.268 OA
ATOM     60  N   CYS    10      -4.311 -18.676   8.439  1.00  0.00    -0.228 NA
BRANCH  60  61
ATOM     61  CA  CYS    10      -5.186 -18.647   9.636  1.00  0.00     0.198 C 
BRANCH  61  62
ATOM     62  CB  CYS    10      -5.773 -17.255   9.898  1.00  0.00     0.103 C 
ATOM     63  SG  CYS    10      -5.623 -16.001   8.579  1.00  0.00    -0.080 SA
ENDBRANCH  61  62
BRANCH  61  64
ATOM     64  C   CYS    10      -6.408 -19.563   9.539  1.00  0.00     0.275 C 
ATOM     65  O   CYS    10      -6.265 -20.774   9.696  1.00  0.00    -0.268 OA
ATOM     66  N   GLY    11      -7.564 -18.922   9.603  1.00  0.00    -0.225 NA
BRANCH  66  67
ATOM     67  CA  GLY    11      -8.747 -19.394   8.871  1.00  0.00     0.226 C 
BRANCH  67  68
ATOM     68  C   GLY    11      -9.477 -18.114   8.436  1.00  0.00     0.211 C 
ATOM     69  O2  GLY    11      -9.247 -17.733   7.268  1.00  0.00    -0.646 OA
ATOM     70  O1  GLY    11     -10.481 -17.793   9.113  1.00  0.00    -0.646 OA
ENDBRANCH  67  68
ENDBRANCH  66  67
ENDBRANCH  61  64
ENDBRANCH  60  61
ENDBRANCH  57  58
ENDBRANCH  55  57
ENDBRANCH  53  54
ENDBRANCH  52  53
ENDBRANCH  49  50
BRANCH  49  71
ATOM     71  CB  SER     7       2.087 -16.859   9.368  1.00  0.00     0.216 C 
ATOM     72  OG  SER     7       1.533 -16.442  10.616  1.00  0.00    -0.218 OA
ENDBRANCH  49  71
ENDBRANCH  47  49
ENDBRANCH  42  46
ENDBRANCH   1  39
TORSDOF 33
ENDMDL
MODEL 3
REMARK VINA RESULT:      -2.9      8.720     14.328
REMARK WARNING: 32 MAX_TORS EXCEEDED!!!
REMARK  33 active torsions:
REMARK  status: ('A' for Active; 'I' for Inactive)
REMARK    1  A    between atoms: CA_2  and  C_8 
REMARK    2  A    between atoms: CA_2  and  CB_3 
REMARK    3  A    between atoms: CB_3  and  CG_4 
REMARK    4  A    between atoms: CG_4  and  CD_5 
REMARK       I    between atoms: C_8  and  N_10 
REMARK    5  A    between atoms: N_10  and  CA_11 
REMARK    6  A    between atoms: CA_11  and  C_12 
REMARK       I    between atoms: C_12  and  N_14 
REMARK    7  A    between atoms: N_14  and  CA_15 
REMARK    8  A    between atoms: CA_15  and  C_20 
REMARK    9  A    between atoms: CA_15  and  CB_16 
REMARK   10  A    between atoms: CB_16  and  CG_17 
REMARK       I    between atoms: C_20  and  N_22 
REMARK   11  A    between atoms: N_22  and  CA_23 
REMARK   12  A    between atoms: CA_23  and  CB_24 
REMARK   13  A    between atoms: CA_23  and  C_28 
REMARK   14  A    between atoms: CB_24  and  CG_25 
REMARK       I    between atoms: C_28  and  N_30 
REMARK   15  A    between atoms: N_30  and  CA_31 
REMARK   16  A    between atoms: CA_31  and  CB_32 
REMARK   17  A    between atoms: CA_31  and  C_39 
REMARK   18  A    between atoms: CB_32  and  CG_33 
REMARK   19  A    between atoms: CG_33  and  CD_34 
REMARK   20  A    between atoms: CD_34  and  NE_35 
REMARK       I    between atoms: C_39  and  N_41 
REMARK   21  A    between atoms: CA_42  and  C_46 
REMARK       I    between atoms: C_46  and  N_48 
REMARK   22  A    between atoms: N_48  and  CA_49 
REMARK   23  A    between atoms: CA_49  and  C_52 
REMARK   24  A    between atoms: CA_49  and  CB_50 
REMARK       I    between atoms: C_52  and  N_54 
REMARK   25  A    between atoms: N_54  and  CA_55 
REMARK   26  A    between atoms: CA_55  and  C_56 
REMARK       I    between atoms: C_56  and  N_58 
REMARK   27  A    between atoms: N_58  and  CA_59 
REMARK   28  A    between atoms: CA_59  and  C_60 
REMARK       I    between atoms: C_60  and  N_62 
REMARK   29  A    between atoms: N_62  and  CA_63 
REMARK   30  A    between atoms: CA_63  and  CB_64 
REMARK   31  A    between atoms: CA_63  and  C_66 
REMARK       I    between atoms: C_66  and  N_68 
REMARK   32  A    between atoms: N_68  and  CA_69 
REMARK   33  A    between atoms: CA_69  and  C_70 
ROOT
ATOM      1  CA  ARG     5      -0.420 -21.410   9.339  1.00  0.00     0.185 C 
ENDROOT
BRANCH   1   2
ATOM      2  N   ARG     5      -0.432 -22.870   9.132  1.00  0.00    -0.229 NA
ATOM      3  C   ASN     4      -0.293 -23.785  10.079  1.00  0.00     0.275 C 
ATOM      4  O   ASN     4       0.113 -23.548  11.212  1.00  0.00    -0.268 OA
BRANCH   3   5
ATOM      5  CA  ASN     4      -0.366 -25.225   9.531  1.00  0.00     0.196 C 
BRANCH   5   6
ATOM      6  N   ASN     4      -1.769 -25.620   9.286  1.00  0.00    -0.228 NA
ATOM      7  C   LEU     3      -2.528 -26.218  10.200  1.00  0.00     0.274 C 
ATOM      8  O   LEU     3      -2.165 -26.503  11.345  1.00  0.00    -0.268 OA
BRANCH   7   9
ATOM      9  CA  LEU     3      -3.966 -26.494   9.762  1.00  0.00     0.186 C 
BRANCH   9  10
ATOM     10  N   LEU     3      -4.153 -27.948   9.560  1.00  0.00    -0.229 NA
ATOM     11  C   GLY     2      -4.124 -28.521   8.353  1.00  0.00     0.277 C 
ATOM     12  O   GLY     2      -3.790 -27.929   7.338  1.00  0.00    -0.268 OA
BRANCH  11  13
ATOM     13  CA  GLY     2      -4.374 -30.044   8.322  1.00  0.00     0.218 C 
BRANCH  13  14
ATOM     14  N   GLY     2      -3.198 -30.946   8.337  1.00  0.00    -0.226 NA
ATOM     15  C   GLU     1      -3.238 -32.156   8.907  1.00  0.00     0.289 C 
ATOM     16  O   GLU     1      -4.291 -32.636   9.292  1.00  0.00    -0.268 OA
BRANCH  15  17
ATOM     17  CA  GLU     1      -1.929 -32.984   8.993  1.00  0.00     0.381 C 
ATOM     18  N   GLU     1      -1.630 -33.480  10.348  1.00  0.00     0.626 N 
BRANCH  17  19
ATOM     19  CB  GLU     1      -2.013 -34.144   7.979  1.00  0.00     0.060 C 
BRANCH  19  20
ATOM     20  CG  GLU     1      -1.971 -35.593   8.486  1.00  0.00     0.100 C 
BRANCH  20  21
ATOM     21  CD  GLU     1      -3.082 -36.467   7.884  1.00  0.00     0.185 C 
ATOM     22  OE1 GLU     1      -2.754 -37.502   7.276  1.00  0.00    -0.647 OA
ATOM     23  OE2 GLU     1      -4.261 -36.090   8.001  1.00  0.00    -0.647 OA
ENDBRANCH  20  21
ENDBRANCH  19  20
ENDBRANCH  17  19
ENDBRANCH  15  17
ENDBRANCH  13  14
ENDBRANCH  11  13
ENDBRANCH   9  10
BRANCH   9  24
ATOM     24  CB  LEU     3      -4.919 -25.976  10.847  1.00  0.00     0.034 C 
BRANCH  24  25
ATOM     25  CG  LEU     3      -6.338 -25.671  10.334  1.00  0.00     0.002 C 
ATOM     26  CD1 LEU     3      -7.018 -24.680  11.277  1.00  0.00     0.000 C 
ATOM     27  CD2 LEU     3      -6.303 -25.101   8.911  1.00  0.00     0.000 C 
ENDBRANCH  24  25
ENDBRANCH   9  24
ENDBRANCH   7   9
ENDBRANCH   5   6
BRANCH   5  28
ATOM     28  CB  ASN     4       0.463 -25.381   8.245  1.00  0.00     0.126 C 
BRANCH  28  29
ATOM     29  CG  ASN     4       1.980 -25.495   8.496  1.00  0.00     0.276 C 
ATOM     30  ND2 ASN     4       2.400 -26.624   9.003  1.00  0.00    -0.107 N 
ATOM     31  OD1 ASN     4       2.784 -24.635   8.192  1.00  0.00    -0.269 OA
ENDBRANCH  28  29
ENDBRANCH   5  28
ENDBRANCH   3   5
ENDBRANCH   1   2
BRANCH   1  32
ATOM     32  CB  ARG     5       0.454 -20.725   8.283  1.00  0.00     0.036 C 
BRANCH  32  33
ATOM     33  CG  ARG     5       1.785 -21.433   8.027  1.00  0.00     0.029 C 
BRANCH  33  34
ATOM     34  CD  ARG     5       2.846 -20.875   8.971  1.00  0.00     0.145 C 
BRANCH  34  35
ATOM     35  NE  ARG     5       2.992 -19.406   8.836  1.00  0.00    -0.083 NA
ATOM     36  CZ  ARG     5       2.881 -18.530   9.846  1.00  0.00     0.782 C 
ATOM     37  NH2 ARG     5       3.265 -17.251   9.701  1.00  0.00     0.063 N 
ATOM     38  NH1 ARG     5       2.508 -18.917  11.058  1.00  0.00     0.063 N 
ENDBRANCH  34  35
ENDBRANCH  33  34
ENDBRANCH  32  33
ENDBRANCH   1  32
BRANCH   1  39
ATOM     39  C   ARG     5      -1.858 -20.866   9.250  1.00  0.00     0.256 C 
ATOM     40  O   ARG     5      -2.765 -21.596   8.839  1.00  0.00    -0.270 OA
ATOM     41  N   PRO     6      -2.077 -19.637   9.727  1.00  0.00    -0.312 N 
ATOM     42  CA  PRO     6      -3.388 -18.951   9.689  1.00  0.00     0.165 C 
ATOM     43  CD  PRO     6      -1.108 -18.834  10.505  1.00  0.00     0.105 C 
ATOM     44  CB  PRO     6      -3.116 -17.554  10.249  1.00  0.00     0.034 C 
ATOM     45  CG  PRO     6      -1.970 -17.794  11.222  1.00  0.00     0.027 C 
BRANCH  42  46
ATOM     46  C   PRO     6      -3.937 -18.870   8.255  1.00  0.00     0.272 C 
ATOM     47  N   SER     7      -5.243 -18.738   8.064  1.00  0.00    -0.226 NA
ATOM     48  O   PRO     6      -3.180 -19.034   7.293  1.00  0.00    -0.269 OA
BRANCH  47  49
ATOM     49  CA  SER     7      -6.290 -18.665   9.112  1.00  0.00     0.219 C 
BRANCH  49  50
ATOM     50  C   SER     7      -7.161 -19.932   9.144  1.00  0.00     0.277 C 
ATOM     51  O   SER     7      -7.413 -20.515   8.095  1.00  0.00    -0.268 OA
ATOM     52  N   GLY     8      -7.389 -20.445  10.345  1.00  0.00    -0.226 NA
BRANCH  52  53
ATOM     53  CA  GLY     8      -8.377 -21.535  10.562  1.00  0.00     0.218 C 
BRANCH  53  54
ATOM     54  C   GLY     8      -9.873 -21.196  10.432  1.00  0.00     0.277 C 
ATOM     55  N   GLY     9     -10.692 -22.182  10.037  1.00  0.00    -0.226 NA
ATOM     56  O   GLY     8     -10.276 -20.083  10.725  1.00  0.00    -0.268 OA
BRANCH  55  57
ATOM     57  CA  GLY     9     -12.142 -21.991   9.833  1.00  0.00     0.218 C 
BRANCH  57  58
ATOM     58  C   GLY     9     -12.543 -22.240   8.359  1.00  0.00     0.277 C 
ATOM     59  O   GLY     9     -12.486 -21.317   7.557  1.00  0.00    -0.268 OA
ATOM     60  N   CYS    10     -13.105 -23.376   7.970  1.00  0.00    -0.228 NA
BRANCH  60  61
ATOM     61  CA  CYS    10     -13.477 -24.543   8.808  1.00  0.00     0.198 C 
BRANCH  61  62
ATOM     62  CB  CYS    10     -14.991 -24.643   9.031  1.00  0.00     0.103 C 
ATOM     63  SG  CYS    10     -15.642 -24.214  10.681  1.00  0.00    -0.080 SA
ENDBRANCH  61  62
BRANCH  61  64
ATOM     64  C   CYS    10     -13.091 -25.894   8.203  1.00  0.00     0.275 C 
ATOM     65  O   CYS    10     -13.947 -26.770   8.092  1.00  0.00    -0.268 OA
ATOM     66  N   GLY    11     -11.932 -25.883   7.564  1.00  0.00    -0.225 NA
BRANCH  66  67
ATOM     67  CA  GLY    11     -11.057 -27.063   7.538  1.00  0.00     0.226 C 
BRANCH  67  68
ATOM     68  C   GLY    11     -10.550 -27.209   8.982  1.00  0.00     0.211 C 
ATOM     69  O2  GLY    11     -10.856 -28.277   9.555  1.00  0.00    -0.646 OA
ATOM     70  O1  GLY    11      -9.601 -26.462   9.312  1.00  0.00    -0.646 OA
ENDBRANCH  67  68
ENDBRANCH  66  67
ENDBRANCH  61  64
ENDBRANCH  60  61
ENDBRANCH  57  58
ENDBRANCH  55  57
ENDBRANCH  53  54
ENDBRANCH  52  53
ENDBRANCH  49  50
BRANCH  49  71
ATOM     71  CB  SER     7      -7.225 -17.474   8.894  1.00  0.00     0.216 C 
ATOM     72  OG  SER     7      -6.461 -16.301   8.610  1.00  0.00    -0.218 OA
ENDBRANCH  49  71
ENDBRANCH  47  49
ENDBRANCH  42  46
ENDBRANCH   1  39
TORSDOF 33
ENDMDL
MODEL 4
REMARK VINA RESULT:      -2.8      9.197     15.559
REMARK WARNING: 32 MAX_TORS EXCEEDED!!!
REMARK  33 active torsions:
REMARK  status: ('A' for Active; 'I' for Inactive)
REMARK    1  A    between atoms: CA_2  and  C_8 
REMARK    2  A    between atoms: CA_2  and  CB_3 
REMARK    3  A    between atoms: CB_3  and  CG_4 
REMARK    4  A    between atoms: CG_4  and  CD_5 
REMARK       I    between atoms: C_8  and  N_10 
REMARK    5  A    between atoms: N_10  and  CA_11 
REMARK    6  A    between atoms: CA_11  and  C_12 
REMARK       I    between atoms: C_12  and  N_14 
REMARK    7  A    between atoms: N_14  and  CA_15 
REMARK    8  A    between atoms: CA_15  and  C_20 
REMARK    9  A    between atoms: CA_15  and  CB_16 
REMARK   10  A    between atoms: CB_16  and  CG_17 
REMARK       I    between atoms: C_20  and  N_22 
REMARK   11  A    between atoms: N_22  and  CA_23 
REMARK   12  A    between atoms: CA_23  and  CB_24 
REMARK   13  A    between atoms: CA_23  and  C_28 
REMARK   14  A    between atoms: CB_24  and  CG_25 
REMARK       I    between atoms: C_28  and  N_30 
REMARK   15  A    between atoms: N_30  and  CA_31 
REMARK   16  A    between atoms: CA_31  and  CB_32 
REMARK   17  A    between atoms: CA_31  and  C_39 
REMARK   18  A    between atoms: CB_32  and  CG_33 
REMARK   19  A    between atoms: CG_33  and  CD_34 
REMARK   20  A    between atoms: CD_34  and  NE_35 
REMARK       I    between atoms: C_39  and  N_41 
REMARK   21  A    between atoms: CA_42  and  C_46 
REMARK       I    between atoms: C_46  and  N_48 
REMARK   22  A    between atoms: N_48  and  CA_49 
REMARK   23  A    between atoms: CA_49  and  C_52 
REMARK   24  A    between atoms: CA_49  and  CB_50 
REMARK       I    between atoms: C_52  and  N_54 
REMARK   25  A    between atoms: N_54  and  CA_55 
REMARK   26  A    between atoms: CA_55  and  C_56 
REMARK       I    between atoms: C_56  and  N_58 
REMARK   27  A    between atoms: N_58  and  CA_59 
REMARK   28  A    between atoms: CA_59  and  C_60 
REMARK       I    between atoms: C_60  and  N_62 
REMARK   29  A    between atoms: N_62  and  CA_63 
REMARK   30  A    between atoms: CA_63  and  CB_64 
REMARK   31  A    between atoms: CA_63  and  C_66 
REMARK       I    between atoms: C_66  and  N_68 
REMARK   32  A    between atoms: N_68  and  CA_69 
REMARK   33  A    between atoms: CA_69  and  C_70 
ROOT
ATOM      1  CA  ARG     5       8.759 -18.212  10.982  1.00  0.00     0.185 C 
ENDROOT
BRANCH   1   2
ATOM      2  N   ARG     5       9.226 -19.555  10.590  1.00  0.00    -0.229 NA
ATOM      3  C   ASN     4       9.602 -19.917   9.373  1.00  0.00     0.275 C 
ATOM      4  O   ASN     4       9.377 -19.264   8.359  1.00  0.00    -0.268 OA
BRANCH   3   5
ATOM      5  CA  ASN     4      10.049 -21.392   9.303  1.00  0.00     0.196 C 
BRANCH   5   6
ATOM      6  N   ASN     4      11.517 -21.487   9.156  1.00  0.00    -0.228 NA
ATOM      7  C   LEU     3      12.128 -22.529   8.597  1.00  0.00     0.274 C 
ATOM      8  O   LEU     3      11.555 -23.520   8.135  1.00  0.00    -0.268 OA
BRANCH   7   9
ATOM      9  CA  LEU     3      13.647 -22.405   8.494  1.00  0.00     0.186 C 
BRANCH   9  10
ATOM     10  N   LEU     3      14.181 -21.798   9.733  1.00  0.00    -0.229 NA
ATOM     11  C   GLY     2      15.108 -20.835   9.729  1.00  0.00     0.277 C 
ATOM     12  O   GLY     2      15.479 -20.268   8.712  1.00  0.00    -0.268 OA
BRANCH  11  13
ATOM     13  CA  GLY     2      15.578 -20.342  11.114  1.00  0.00     0.218 C 
BRANCH  13  14
ATOM     14  N   GLY     2      16.842 -19.571  11.188  1.00  0.00    -0.226 NA
ATOM     15  C   GLU     1      18.039 -20.168  11.181  1.00  0.00     0.289 C 
ATOM     16  O   GLU     1      18.148 -21.360  10.946  1.00  0.00    -0.268 OA
BRANCH  15  17
ATOM     17  CA  GLU     1      19.308 -19.299  11.392  1.00  0.00     0.381 C 
ATOM     18  N   GLU     1      20.522 -19.865  10.778  1.00  0.00     0.626 N 
BRANCH  17  19
ATOM     19  CB  GLU     1      19.023 -17.878  10.863  1.00  0.00     0.060 C 
BRANCH  19  20
ATOM     20  CG  GLU     1      20.196 -16.917  10.615  1.00  0.00     0.100 C 
BRANCH  20  21
ATOM     21  CD  GLU     1      19.741 -15.464  10.408  1.00  0.00     0.185 C 
ATOM     22  OE1 GLU     1      19.725 -14.704  11.392  1.00  0.00    -0.647 OA
ATOM     23  OE2 GLU     1      19.378 -15.114   9.271  1.00  0.00    -0.647 OA
ENDBRANCH  20  21
ENDBRANCH  19  20
ENDBRANCH  17  19
ENDBRANCH  15  17
ENDBRANCH  13  14
ENDBRANCH  11  13
ENDBRANCH   9  10
BRANCH   9  24
ATOM     24  CB  LEU     3      14.243 -23.802   8.281  1.00  0.00     0.034 C 
BRANCH  24  25
ATOM     25  CG  LEU     3      15.257 -24.217   9.362  1.00  0.00     0.002 C 
ATOM     26  CD1 LEU     3      14.947 -25.637   9.832  1.00  0.00     0.000 C 
ATOM     27  CD2 LEU     3      16.693 -24.141   8.833  1.00  0.00     0.000 C 
ENDBRANCH  24  25
ENDBRANCH   9  24
ENDBRANCH   7   9
ENDBRANCH   5   6
BRANCH   5  28
ATOM     28  CB  ASN     4       9.587 -22.181  10.540  1.00  0.00     0.126 C 
BRANCH  28  29
ATOM     29  CG  ASN     4       8.696 -23.393  10.204  1.00  0.00     0.276 C 
ATOM     30  ND2 ASN     4       9.219 -24.572  10.413  1.00  0.00    -0.107 N 
ATOM     31  OD1 ASN     4       7.543 -23.304   9.828  1.00  0.00    -0.269 OA
ENDBRANCH  28  29
ENDBRANCH   5  28
ENDBRANCH   3   5
ENDBRANCH   1   2
BRANCH   1  32
ATOM     32  CB  ARG     5       9.619 -17.130  10.319  1.00  0.00     0.036 C 
BRANCH  32  33
ATOM     33  CG  ARG     5      10.926 -16.840  11.057  1.00  0.00     0.029 C 
BRANCH  33  34
ATOM     34  CD  ARG     5      12.069 -16.753  10.051  1.00  0.00     0.145 C 
BRANCH  34  35
ATOM     35  NE  ARG     5      13.396 -16.796  10.713  1.00  0.00    -0.083 NA
ATOM     36  CZ  ARG     5      14.571 -16.685  10.077  1.00  0.00     0.782 C 
ATOM     37  NH2 ARG     5      15.712 -16.487  10.758  1.00  0.00     0.063 N 
ATOM     38  NH1 ARG     5      14.639 -16.640   8.754  1.00  0.00     0.063 N 
ENDBRANCH  34  35
ENDBRANCH  33  34
ENDBRANCH  32  33
ENDBRANCH   1  32
BRANCH   1  39
ATOM     39  C   ARG     5       7.289 -18.034  10.558  1.00  0.00     0.256 C 
ATOM     40  O   ARG     5       6.458 -18.898  10.853  1.00  0.00    -0.270 OA
ATOM     41  N   PRO     6       6.959 -16.881   9.969  1.00  0.00    -0.312 N 
ATOM     42  CA  PRO     6       5.602 -16.561   9.470  1.00  0.00     0.165 C 
ATOM     43  CD  PRO     6       7.831 -15.691   9.862  1.00  0.00     0.105 C 
ATOM     44  CB  PRO     6       5.745 -15.195   8.797  1.00  0.00     0.034 C 
ATOM     45  CG  PRO     6       6.864 -14.538   9.592  1.00  0.00     0.027 C 
BRANCH  42  46
ATOM     46  C   PRO     6       5.109 -17.618   8.468  1.00  0.00     0.272 C 
ATOM     47  N   SER     7       3.989 -18.282   8.721  1.00  0.00    -0.226 NA
ATOM     48  O   PRO     6       5.806 -17.919   7.494  1.00  0.00    -0.269 OA
BRANCH  47  49
ATOM     49  CA  SER     7       3.117 -18.131   9.910  1.00  0.00     0.219 C 
BRANCH  49  50
ATOM     50  C   SER     7       2.153 -19.319  10.072  1.00  0.00     0.277 C 
ATOM     51  O   SER     7       1.631 -19.525  11.163  1.00  0.00    -0.268 OA
ATOM     52  N   GLY     8       1.767 -19.907   8.948  1.00  0.00    -0.226 NA
BRANCH  52  53
ATOM     53  CA  GLY     8       1.013 -21.188   8.947  1.00  0.00     0.218 C 
BRANCH  53  54
ATOM     54  C   GLY     8      -0.516 -21.130   8.783  1.00  0.00     0.277 C 
ATOM     55  N   GLY     9      -1.075 -22.006   7.935  1.00  0.00    -0.226 NA
ATOM     56  O   GLY     8      -1.174 -20.342   9.442  1.00  0.00    -0.268 OA
BRANCH  55  57
ATOM     57  CA  GLY     9      -2.523 -22.039   7.649  1.00  0.00     0.218 C 
BRANCH  57  58
ATOM     58  C   GLY     9      -3.230 -23.165   8.441  1.00  0.00     0.277 C 
ATOM     59  O   GLY     9      -2.561 -24.063   8.935  1.00  0.00    -0.268 OA
ATOM     60  N   CYS    10      -4.551 -23.282   8.462  1.00  0.00    -0.228 NA
BRANCH  60  61
ATOM     61  CA  CYS    10      -5.551 -22.447   7.753  1.00  0.00     0.198 C 
BRANCH  61  62
ATOM     62  CB  CYS    10      -6.759 -23.262   7.276  1.00  0.00     0.103 C 
ATOM     63  SG  CYS    10      -7.683 -24.230   8.517  1.00  0.00    -0.080 SA
ENDBRANCH  61  62
BRANCH  61  64
ATOM     64  C   CYS    10      -6.157 -21.334   8.611  1.00  0.00     0.275 C 
ATOM     65  O   CYS    10      -7.202 -21.548   9.223  1.00  0.00    -0.268 OA
ATOM     66  N   GLY    11      -5.323 -20.339   8.862  1.00  0.00    -0.225 NA
BRANCH  66  67
ATOM     67  CA  GLY    11      -5.798 -18.955   9.005  1.00  0.00     0.226 C 
BRANCH  67  68
ATOM     68  C   GLY    11      -4.900 -18.133   8.067  1.00  0.00     0.211 C 
ATOM     69  O2  GLY    11      -4.163 -18.798   7.307  1.00  0.00    -0.646 OA
ATOM     70  O1  GLY    11      -5.242 -16.943   7.877  1.00  0.00    -0.646 OA
ENDBRANCH  67  68
ENDBRANCH  66  67
ENDBRANCH  61  64
ENDBRANCH  60  61
ENDBRANCH  57  58
ENDBRANCH  55  57
ENDBRANCH  53  54
ENDBRANCH  52  53
ENDBRANCH  49  50
BRANCH  49  71
ATOM     71  CB  SER     7       2.266 -16.861   9.830  1.00  0.00     0.216 C 
ATOM     72  OG  SER     7       1.516 -16.854   8.616  1.00  0.00    -0.218 OA
ENDBRANCH  49  71
ENDBRANCH  47  49
ENDBRANCH  42  46
ENDBRANCH   1  39
TORSDOF 33
ENDMDL
MODEL 5
REMARK VINA RESULT:      -2.7      7.033     14.094
REMARK WARNING: 32 MAX_TORS EXCEEDED!!!
REMARK  33 active torsions:
REMARK  status: ('A' for Active; 'I' for Inactive)
REMARK    1  A    between atoms: CA_2  and  C_8 
REMARK    2  A    between atoms: CA_2  and  CB_3 
REMARK    3  A    between atoms: CB_3  and  CG_4 
REMARK    4  A    between atoms: CG_4  and  CD_5 
REMARK       I    between atoms: C_8  and  N_10 
REMARK    5  A    between atoms: N_10  and  CA_11 
REMARK    6  A    between atoms: CA_11  and  C_12 
REMARK       I    between atoms: C_12  and  N_14 
REMARK    7  A    between atoms: N_14  and  CA_15 
REMARK    8  A    between atoms: CA_15  and  C_20 
REMARK    9  A    between atoms: CA_15  and  CB_16 
REMARK   10  A    between atoms: CB_16  and  CG_17 
REMARK       I    between atoms: C_20  and  N_22 
REMARK   11  A    between atoms: N_22  and  CA_23 
REMARK   12  A    between atoms: CA_23  and  CB_24 
REMARK   13  A    between atoms: CA_23  and  C_28 
REMARK   14  A    between atoms: CB_24  and  CG_25 
REMARK       I    between atoms: C_28  and  N_30 
REMARK   15  A    between atoms: N_30  and  CA_31 
REMARK   16  A    between atoms: CA_31  and  CB_32 
REMARK   17  A    between atoms: CA_31  and  C_39 
REMARK   18  A    between atoms: CB_32  and  CG_33 
REMARK   19  A    between atoms: CG_33  and  CD_34 
REMARK   20  A    between atoms: CD_34  and  NE_35 
REMARK       I    between atoms: C_39  and  N_41 
REMARK   21  A    between atoms: CA_42  and  C_46 
REMARK       I    between atoms: C_46  and  N_48 
REMARK   22  A    between atoms: N_48  and  CA_49 
REMARK   23  A    between atoms: CA_49  and  C_52 
REMARK   24  A    between atoms: CA_49  and  CB_50 
REMARK       I    between atoms: C_52  and  N_54 
REMARK   25  A    between atoms: N_54  and  CA_55 
REMARK   26  A    between atoms: CA_55  and  C_56 
REMARK       I    between atoms: C_56  and  N_58 
REMARK   27  A    between atoms: N_58  and  CA_59 
REMARK   28  A    between atoms: CA_59  and  C_60 
REMARK       I    between atoms: C_60  and  N_62 
REMARK   29  A    between atoms: N_62  and  CA_63 
REMARK   30  A    between atoms: CA_63  and  CB_64 
REMARK   31  A    between atoms: CA_63  and  C_66 
REMARK       I    between atoms: C_66  and  N_68 
REMARK   32  A    between atoms: N_68  and  CA_69 
REMARK   33  A    between atoms: CA_69  and  C_70 
ROOT
ATOM      1  CA  ARG     5       8.208 -18.456  10.720  1.00  0.00     0.185 C 
ENDROOT
BRANCH   1   2
ATOM      2  N   ARG     5       8.816 -19.797  10.632  1.00  0.00    -0.229 NA
ATOM      3  C   ASN     4       9.098 -20.444   9.512  1.00  0.00     0.275 C 
ATOM      4  O   ASN     4       8.667 -20.130   8.407  1.00  0.00    -0.268 OA
BRANCH   3   5
ATOM      5  CA  ASN     4       9.742 -21.823   9.766  1.00  0.00     0.196 C 
BRANCH   5   6
ATOM      6  N   ASN     4      11.182 -21.796   9.435  1.00  0.00    -0.228 NA
ATOM      7  C   LEU     3      11.833 -22.839   8.927  1.00  0.00     0.274 C 
ATOM      8  O   LEU     3      11.322 -23.933   8.667  1.00  0.00    -0.268 OA
BRANCH   7   9
ATOM      9  CA  LEU     3      13.305 -22.587   8.605  1.00  0.00     0.186 C 
BRANCH   9  10
ATOM     10  N   LEU     3      14.036 -22.264   9.851  1.00  0.00    -0.229 NA
ATOM     11  C   GLY     2      14.687 -21.112  10.032  1.00  0.00     0.277 C 
ATOM     12  O   GLY     2      14.609 -20.169   9.258  1.00  0.00    -0.268 OA
BRANCH  11  13
ATOM     13  CA  GLY     2      15.428 -20.957  11.378  1.00  0.00     0.218 C 
BRANCH  13  14
ATOM     14  N   GLY     2      16.900 -21.131  11.389  1.00  0.00    -0.226 NA
ATOM     15  C   GLU     1      17.738 -20.094  11.286  1.00  0.00     0.289 C 
ATOM     16  O   GLU     1      17.331 -18.946  11.345  1.00  0.00    -0.268 OA
BRANCH  15  17
ATOM     17  CA  GLU     1      19.261 -20.373  11.176  1.00  0.00     0.381 C 
ATOM     18  N   GLU     1      19.585 -21.780  10.883  1.00  0.00     0.626 N 
BRANCH  17  19
ATOM     19  CB  GLU     1      19.858 -19.428  10.114  1.00  0.00     0.060 C 
BRANCH  19  20
ATOM     20  CG  GLU     1      19.449 -19.594   8.642  1.00  0.00     0.100 C 
BRANCH  20  21
ATOM     21  CD  GLU     1      18.756 -18.347   8.073  1.00  0.00     0.185 C 
ATOM     22  OE1 GLU     1      19.394 -17.622   7.289  1.00  0.00    -0.647 OA
ATOM     23  OE2 GLU     1      17.596 -18.095   8.441  1.00  0.00    -0.647 OA
ENDBRANCH  20  21
ENDBRANCH  19  20
ENDBRANCH  17  19
ENDBRANCH  15  17
ENDBRANCH  13  14
ENDBRANCH  11  13
ENDBRANCH   9  10
BRANCH   9  24
ATOM     24  CB  LEU     3      13.890 -23.844   7.950  1.00  0.00     0.034 C 
BRANCH  24  25
ATOM     25  CG  LEU     3      14.627 -24.772   8.932  1.00  0.00     0.002 C 
ATOM     26  CD1 LEU     3      13.658 -25.831   9.456  1.00  0.00     0.000 C 
ATOM     27  CD2 LEU     3      15.829 -25.446   8.262  1.00  0.00     0.000 C 
ENDBRANCH  24  25
ENDBRANCH   9  24
ENDBRANCH   7   9
ENDBRANCH   5   6
BRANCH   5  28
ATOM     28  CB  ASN     4       9.539 -22.279  11.221  1.00  0.00     0.126 C 
BRANCH  28  29
ATOM     29  CG  ASN     4       8.994 -23.714  11.350  1.00  0.00     0.276 C 
ATOM     30  ND2 ASN     4       7.694 -23.843  11.351  1.00  0.00    -0.107 N 
ATOM     31  OD1 ASN     4       9.697 -24.706  11.385  1.00  0.00    -0.269 OA
ENDBRANCH  28  29
ENDBRANCH   5  28
ENDBRANCH   3   5
ENDBRANCH   1   2
BRANCH   1  32
ATOM     32  CB  ARG     5       8.959 -17.466   9.823  1.00  0.00     0.036 C 
BRANCH  32  33
ATOM     33  CG  ARG     5       9.865 -16.501  10.589  1.00  0.00     0.029 C 
BRANCH  33  34
ATOM     34  CD  ARG     5      11.313 -16.963  10.473  1.00  0.00     0.145 C 
BRANCH  34  35
ATOM     35  NE  ARG     5      11.506 -17.903   9.341  1.00  0.00    -0.083 NA
ATOM     36  CZ  ARG     5      12.065 -17.580   8.165  1.00  0.00     0.782 C 
ATOM     37  NH2 ARG     5      12.429 -18.528   7.286  1.00  0.00     0.063 N 
ATOM     38  NH1 ARG     5      12.393 -16.328   7.878  1.00  0.00     0.063 N 
ENDBRANCH  34  35
ENDBRANCH  33  34
ENDBRANCH  32  33
ENDBRANCH   1  32
BRANCH   1  39
ATOM     39  C   ARG     5       6.733 -18.529  10.286  1.00  0.00     0.256 C 
ATOM     40  O   ARG     5       5.922 -19.157  10.973  1.00  0.00    -0.270 OA
ATOM     41  N   PRO     6       6.374 -17.810   9.218  1.00  0.00    -0.312 N 
ATOM     42  CA  PRO     6       5.008 -17.794   8.647  1.00  0.00     0.165 C 
ATOM     43  CD  PRO     6       7.219 -16.805   8.537  1.00  0.00     0.105 C 
ATOM     44  CB  PRO     6       5.117 -16.921   7.396  1.00  0.00     0.034 C 
ATOM     45  CG  PRO     6       6.225 -15.943   7.758  1.00  0.00     0.027 C 
BRANCH  42  46
ATOM     46  C   PRO     6       4.533 -19.211   8.288  1.00  0.00     0.272 C 
ATOM     47  N   SER     7       3.335 -19.617   8.686  1.00  0.00    -0.226 NA
ATOM     48  O   PRO     6       5.303 -19.997   7.727  1.00  0.00    -0.269 OA
BRANCH  47  49
ATOM     49  CA  SER     7       2.354 -18.839   9.481  1.00  0.00     0.219 C 
BRANCH  49  50
ATOM     50  C   SER     7       0.942 -19.446   9.404  1.00  0.00     0.277 C 
ATOM     51  O   SER     7       0.324 -19.663  10.442  1.00  0.00    -0.268 OA
ATOM     52  N   GLY     8       0.391 -19.476   8.199  1.00  0.00    -0.226 NA
BRANCH  52  53
ATOM     53  CA  GLY     8      -0.870 -20.217   7.927  1.00  0.00     0.218 C 
BRANCH  53  54
ATOM     54  C   GLY     8      -2.203 -19.463   8.082  1.00  0.00     0.277 C 
ATOM     55  N   GLY     9      -3.324 -20.198   8.101  1.00  0.00    -0.226 NA
ATOM     56  O   GLY     8      -2.209 -18.251   8.225  1.00  0.00    -0.268 OA
BRANCH  55  57
ATOM     57  CA  GLY     9      -4.674 -19.608   8.204  1.00  0.00     0.218 C 
BRANCH  57  58
ATOM     58  C   GLY     9      -5.356 -19.987   9.540  1.00  0.00     0.277 C 
ATOM     59  O   GLY     9      -4.835 -20.826  10.263  1.00  0.00    -0.268 OA
ATOM     60  N   CYS    10      -6.571 -19.557   9.851  1.00  0.00    -0.228 NA
BRANCH  60  61
ATOM     61  CA  CYS    10      -7.480 -18.720   9.030  1.00  0.00     0.198 C 
BRANCH  61  62
ATOM     62  CB  CYS    10      -8.949 -18.876   9.441  1.00  0.00     0.103 C 
ATOM     63  SG  CYS    10     -10.216 -18.809   8.129  1.00  0.00    -0.080 SA
ENDBRANCH  61  62
BRANCH  61  64
ATOM     64  C   CYS    10      -7.211 -17.217   9.137  1.00  0.00     0.275 C 
ATOM     65  O   CYS    10      -7.149 -16.695  10.248  1.00  0.00    -0.268 OA
ATOM     66  N   GLY    11      -6.757 -16.675   8.019  1.00  0.00    -0.225 NA
BRANCH  66  67
ATOM     67  CA  GLY    11      -7.088 -15.292   7.646  1.00  0.00     0.226 C 
BRANCH  67  68
ATOM     68  C   GLY    11      -5.885 -14.460   8.119  1.00  0.00     0.211 C 
ATOM     69  O2  GLY    11      -6.115 -13.664   9.055  1.00  0.00    -0.646 OA
ATOM     70  O1  GLY    11      -4.754 -14.899   7.811  1.00  0.00    -0.646 OA
ENDBRANCH  67  68
ENDBRANCH  66  67
ENDBRANCH  61  64
ENDBRANCH  60  61
ENDBRANCH  57  58
ENDBRANCH  55  57
ENDBRANCH  53  54
ENDBRANCH  52  53
ENDBRANCH  49  50
BRANCH  49  71
ATOM     71  CB  SER     7       2.254 -17.391   8.997  1.00  0.00     0.216 C 
ATOM     72  OG  SER     7       1.688 -16.574  10.022  1.00  0.00    -0.218 OA
ENDBRANCH  49  71
ENDBRANCH  47  49
ENDBRANCH  42  46
ENDBRANCH   1  39
TORSDOF 33
ENDMDL
MODEL 6
REMARK VINA RESULT:      -2.7      2.337      4.280
REMARK WARNING: 32 MAX_TORS EXCEEDED!!!
REMARK  33 active torsions:
REMARK  status: ('A' for Active; 'I' for Inactive)
REMARK    1  A    between atoms: CA_2  and  C_8 
REMARK    2  A    between atoms: CA_2  and  CB_3 
REMARK    3  A    between atoms: CB_3  and  CG_4 
REMARK    4  A    between atoms: CG_4  and  CD_5 
REMARK       I    between atoms: C_8  and  N_10 
REMARK    5  A    between atoms: N_10  and  CA_11 
REMARK    6  A    between atoms: CA_11  and  C_12 
REMARK       I    between atoms: C_12  and  N_14 
REMARK    7  A    between atoms: N_14  and  CA_15 
REMARK    8  A    between atoms: CA_15  and  C_20 
REMARK    9  A    between atoms: CA_15  and  CB_16 
REMARK   10  A    between atoms: CB_16  and  CG_17 
REMARK       I    between atoms: C_20  and  N_22 
REMARK   11  A    between atoms: N_22  and  CA_23 
REMARK   12  A    between atoms: CA_23  and  CB_24 
REMARK   13  A    between atoms: CA_23  and  C_28 
REMARK   14  A    between atoms: CB_24  and  CG_25 
REMARK       I    between atoms: C_28  and  N_30 
REMARK   15  A    between atoms: N_30  and  CA_31 
REMARK   16  A    between atoms: CA_31  and  CB_32 
REMARK   17  A    between atoms: CA_31  and  C_39 
REMARK   18  A    between atoms: CB_32  and  CG_33 
REMARK   19  A    between atoms: CG_33  and  CD_34 
REMARK   20  A    between atoms: CD_34  and  NE_35 
REMARK       I    between atoms: C_39  and  N_41 
REMARK   21  A    between atoms: CA_42  and  C_46 
REMARK       I    between atoms: C_46  and  N_48 
REMARK   22  A    between atoms: N_48  and  CA_49 
REMARK   23  A    between atoms: CA_49  and  C_52 
REMARK   24  A    between atoms: CA_49  and  CB_50 
REMARK       I    between atoms: C_52  and  N_54 
REMARK   25  A    between atoms: N_54  and  CA_55 
REMARK   26  A    between atoms: CA_55  and  C_56 
REMARK       I    between atoms: C_56  and  N_58 
REMARK   27  A    between atoms: N_58  and  CA_59 
REMARK   28  A    between atoms: CA_59  and  C_60 
REMARK       I    between atoms: C_60  and  N_62 
REMARK   29  A    between atoms: N_62  and  CA_63 
REMARK   30  A    between atoms: CA_63  and  CB_64 
REMARK   31  A    between atoms: CA_63  and  C_66 
REMARK       I    between atoms: C_66  and  N_68 
REMARK   32  A    between atoms: N_68  and  CA_69 
REMARK   33  A    between atoms: CA_69  and  C_70 
ROOT
ATOM      1  CA  ARG     5      -3.676 -15.527  10.126  1.00  0.00     0.185 C 
ENDROOT
BRANCH   1   2
ATOM      2  N   ARG     5      -2.337 -16.142  10.170  1.00  0.00    -0.229 NA
ATOM      3  C   ASN     4      -2.085 -17.442  10.160  1.00  0.00     0.275 C 
ATOM      4  O   ASN     4      -2.927 -18.310  10.365  1.00  0.00    -0.268 OA
BRANCH   3   5
ATOM      5  CA  ASN     4      -0.574 -17.755  10.201  1.00  0.00     0.196 C 
BRANCH   5   6
ATOM      6  N   ASN     4      -0.345 -19.175  10.545  1.00  0.00    -0.228 NA
ATOM      7  C   LEU     3      -0.339 -20.151   9.641  1.00  0.00     0.274 C 
ATOM      8  O   LEU     3      -0.512 -19.995   8.429  1.00  0.00    -0.268 OA
BRANCH   7   9
ATOM      9  CA  LEU     3      -0.029 -21.541  10.197  1.00  0.00     0.186 C 
BRANCH   9  10
ATOM     10  N   LEU     3      -0.440 -22.570   9.215  1.00  0.00    -0.229 NA
ATOM     11  C   GLY     2      -1.082 -23.689   9.563  1.00  0.00     0.277 C 
ATOM     12  O   GLY     2      -1.521 -23.887  10.686  1.00  0.00    -0.268 OA
BRANCH  11  13
ATOM     13  CA  GLY     2      -1.401 -24.670   8.415  1.00  0.00     0.218 C 
BRANCH  13  14
ATOM     14  N   GLY     2      -0.298 -25.508   7.886  1.00  0.00    -0.226 NA
ATOM     15  C   GLU     1       0.364 -26.380   8.657  1.00  0.00     0.289 C 
ATOM     16  O   GLU     1      -0.021 -26.642   9.784  1.00  0.00    -0.268 OA
BRANCH  15  17
ATOM     17  CA  GLU     1       1.588 -27.124   8.060  1.00  0.00     0.381 C 
ATOM     18  N   GLU     1       2.843 -26.356   8.138  1.00  0.00     0.626 N 
BRANCH  17  19
ATOM     19  CB  GLU     1       1.722 -28.490   8.763  1.00  0.00     0.060 C 
BRANCH  19  20
ATOM     20  CG  GLU     1       2.755 -29.505   8.248  1.00  0.00     0.100 C 
BRANCH  20  21
ATOM     21  CD  GLU     1       3.838 -29.831   9.287  1.00  0.00     0.185 C 
ATOM     22  OE1 GLU     1       4.784 -29.033   9.425  1.00  0.00    -0.647 OA
ATOM     23  OE2 GLU     1       3.745 -30.893   9.927  1.00  0.00    -0.647 OA
ENDBRANCH  20  21
ENDBRANCH  19  20
ENDBRANCH  17  19
ENDBRANCH  15  17
ENDBRANCH  13  14
ENDBRANCH  11  13
ENDBRANCH   9  10
BRANCH   9  24
ATOM     24  CB  LEU     3       1.475 -21.636  10.477  1.00  0.00     0.034 C 
BRANCH  24  25
ATOM     25  CG  LEU     3       2.333 -21.823   9.212  1.00  0.00     0.002 C 
ATOM     26  CD1 LEU     3       2.614 -20.460   8.583  1.00  0.00     0.000 C 
ATOM     27  CD2 LEU     3       3.652 -22.533   9.536  1.00  0.00     0.000 C 
ENDBRANCH  24  25
ENDBRANCH   9  24
ENDBRANCH   7   9
ENDBRANCH   5   6
BRANCH   5  28
ATOM     28  CB  ASN     4       0.109 -17.415   8.866  1.00  0.00     0.126 C 
BRANCH  28  29
ATOM     29  CG  ASN     4       1.461 -16.693   9.029  1.00  0.00     0.276 C 
ATOM     30  ND2 ASN     4       2.382 -17.330   9.701  1.00  0.00    -0.107 N 
ATOM     31  OD1 ASN     4       1.722 -15.619   8.520  1.00  0.00    -0.269 OA
ENDBRANCH  28  29
ENDBRANCH   5  28
ENDBRANCH   3   5
ENDBRANCH   1   2
BRANCH   1  32
ATOM     32  CB  ARG     5      -4.473 -15.881  11.386  1.00  0.00     0.036 C 
BRANCH  32  33
ATOM     33  CG  ARG     5      -5.848 -16.485  11.099  1.00  0.00     0.029 C 
BRANCH  33  34
ATOM     34  CD  ARG     5      -6.010 -16.688   9.597  1.00  0.00     0.145 C 
BRANCH  34  35
ATOM     35  NE  ARG     5      -7.077 -17.669   9.281  1.00  0.00    -0.083 NA
ATOM     36  CZ  ARG     5      -8.308 -17.349   8.854  1.00  0.00     0.782 C 
ATOM     37  NH2 ARG     5      -9.134 -18.284   8.356  1.00  0.00     0.063 N 
ATOM     38  NH1 ARG     5      -8.710 -16.088   8.789  1.00  0.00     0.063 N 
ENDBRANCH  34  35
ENDBRANCH  33  34
ENDBRANCH  32  33
ENDBRANCH   1  32
BRANCH   1  39
ATOM     39  C   ARG     5      -3.536 -13.997  10.018  1.00  0.00     0.256 C 
ATOM     40  O   ARG     5      -2.563 -13.433  10.528  1.00  0.00    -0.270 OA
ATOM     41  N   PRO     6      -4.442 -13.351   9.276  1.00  0.00    -0.312 N 
ATOM     42  CA  PRO     6      -4.474 -11.882   9.095  1.00  0.00     0.165 C 
ATOM     43  CD  PRO     6      -5.444 -13.992   8.397  1.00  0.00     0.105 C 
ATOM     44  CB  PRO     6      -5.729 -11.618   8.263  1.00  0.00     0.034 C 
ATOM     45  CG  PRO     6      -5.858 -12.883   7.428  1.00  0.00     0.027 C 
BRANCH  42  46
ATOM     46  C   PRO     6      -4.547 -11.152  10.447  1.00  0.00     0.272 C 
ATOM     47  N   SER     7      -5.682 -10.571  10.811  1.00  0.00    -0.226 NA
ATOM     48  O   PRO     6      -3.530 -11.019  11.133  1.00  0.00    -0.269 OA
BRANCH  47  49
ATOM     49  CA  SER     7      -6.946 -10.527  10.037  1.00  0.00     0.219 C 
BRANCH  49  50
ATOM     50  C   SER     7      -7.227  -9.124   9.472  1.00  0.00     0.277 C 
ATOM     51  O   SER     7      -7.982  -9.003   8.513  1.00  0.00    -0.268 OA
ATOM     52  N   GLY     8      -6.812  -8.108  10.217  1.00  0.00    -0.226 NA
BRANCH  52  53
ATOM     53  CA  GLY     8      -6.820  -6.709   9.714  1.00  0.00     0.218 C 
BRANCH  53  54
ATOM     54  C   GLY     8      -7.407  -5.614  10.623  1.00  0.00     0.277 C 
ATOM     55  N   GLY     9      -6.850  -4.396  10.551  1.00  0.00    -0.226 NA
ATOM     56  O   GLY     8      -8.366  -5.858  11.336  1.00  0.00    -0.268 OA
BRANCH  55  57
ATOM     57  CA  GLY     9      -7.284  -3.261  11.391  1.00  0.00     0.218 C 
BRANCH  57  58
ATOM     58  C   GLY     9      -7.245  -1.928  10.606  1.00  0.00     0.277 C 
ATOM     59  O   GLY     9      -6.165  -1.407  10.363  1.00  0.00    -0.268 OA
ATOM     60  N   CYS    10      -8.348  -1.246  10.332  1.00  0.00    -0.228 NA
BRANCH  60  61
ATOM     61  CA  CYS    10      -9.742  -1.570  10.724  1.00  0.00     0.198 C 
BRANCH  61  62
ATOM     62  CB  CYS    10     -10.465  -0.373  11.354  1.00  0.00     0.103 C 
ATOM     63  SG  CYS    10     -10.557   1.174  10.389  1.00  0.00    -0.080 SA
ENDBRANCH  61  62
BRANCH  61  64
ATOM     64  C   CYS    10     -10.639  -1.986   9.557  1.00  0.00     0.275 C 
ATOM     65  O   CYS    10     -11.503  -1.208   9.156  1.00  0.00    -0.268 OA
ATOM     66  N   GLY    11     -10.187  -3.030   8.881  1.00  0.00    -0.225 NA
BRANCH  66  67
ATOM     67  CA  GLY    11     -11.102  -3.998   8.260  1.00  0.00     0.226 C 
BRANCH  67  68
ATOM     68  C   GLY    11     -10.604  -5.372   8.737  1.00  0.00     0.211 C 
ATOM     69  O2  GLY    11     -11.223  -5.862   9.705  1.00  0.00    -0.646 OA
ATOM     70  O1  GLY    11      -9.914  -6.023   7.920  1.00  0.00    -0.646 OA
ENDBRANCH  67  68
ENDBRANCH  66  67
ENDBRANCH  61  64
ENDBRANCH  60  61
ENDBRANCH  57  58
ENDBRANCH  55  57
ENDBRANCH  53  54
ENDBRANCH  52  53
ENDBRANCH  49  50
BRANCH  49  71
ATOM     71  CB  SER     7      -8.149 -10.922  10.896  1.00  0.00     0.216 C 
ATOM     72  OG  SER     7      -8.851 -12.003  10.282  1.00  0.00    -0.218 OA
ENDBRANCH  49  71
ENDBRANCH  47  49
ENDBRANCH  42  46
ENDBRANCH   1  39
TORSDOF 33
ENDMDL
MODEL 7
REMARK VINA RESULT:      -2.7      9.856     20.640
REMARK WARNING: 32 MAX_TORS EXCEEDED!!!
REMARK  33 active torsions:
REMARK  status: ('A' for Active; 'I' for Inactive)
REMARK    1  A    between atoms: CA_2  and  C_8 
REMARK    2  A    between atoms: CA_2  and  CB_3 
REMARK    3  A    between atoms: CB_3  and  CG_4 
REMARK    4  A    between atoms: CG_4  and  CD_5 
REMARK       I    between atoms: C_8  and  N_10 
REMARK    5  A    between atoms: N_10  and  CA_11 
REMARK    6  A    between atoms: CA_11  and  C_12 
REMARK       I    between atoms: C_12  and  N_14 
REMARK    7  A    between atoms: N_14  and  CA_15 
REMARK    8  A    between atoms: CA_15  and  C_20 
REMARK    9  A    between atoms: CA_15  and  CB_16 
REMARK   10  A    between atoms: CB_16  and  CG_17 
REMARK       I    between atoms: C_20  and  N_22 
REMARK   11  A    between atoms: N_22  and  CA_23 
REMARK   12  A    between atoms: CA_23  and  CB_24 
REMARK   13  A    between atoms: CA_23  and  C_28 
REMARK   14  A    between atoms: CB_24  and  CG_25 
REMARK       I    between atoms: C_28  and  N_30 
REMARK   15  A    between atoms: N_30  and  CA_31 
REMARK   16  A    between atoms: CA_31  and  CB_32 
REMARK   17  A    between atoms: CA_31  and  C_39 
REMARK   18  A    between atoms: CB_32  and  CG_33 
REMARK   19  A    between atoms: CG_33  and  CD_34 
REMARK   20  A    between atoms: CD_34  and  NE_35 
REMARK       I    between atoms: C_39  and  N_41 
REMARK   21  A    between atoms: CA_42  and  C_46 
REMARK       I    between atoms: C_46  and  N_48 
REMARK   22  A    between atoms: N_48  and  CA_49 
REMARK   23  A    between atoms: CA_49  and  C_52 
REMARK   24  A    between atoms: CA_49  and  CB_50 
REMARK       I    between atoms: C_52  and  N_54 
REMARK   25  A    between atoms: N_54  and  CA_55 
REMARK   26  A    between atoms: CA_55  and  C_56 
REMARK       I    between atoms: C_56  and  N_58 
REMARK   27  A    between atoms: N_58  and  CA_59 
REMARK   28  A    between atoms: CA_59  and  C_60 
REMARK       I    between atoms: C_60  and  N_62 
REMARK   29  A    between atoms: N_62  and  CA_63 
REMARK   30  A    between atoms: CA_63  and  CB_64 
REMARK   31  A    between atoms: CA_63  and  C_66 
REMARK       I    between atoms: C_66  and  N_68 
REMARK   32  A    between atoms: N_68  and  CA_69 
REMARK   33  A    between atoms: CA_69  and  C_70 
ROOT
ATOM      1  CA  ARG     5       1.279 -24.162   8.523  1.00  0.00     0.185 C 
ENDROOT
BRANCH   1   2
ATOM      2  N   ARG     5       0.396 -23.073   8.978  1.00  0.00    -0.229 NA
ATOM      3  C   ASN     4       0.391 -21.835   8.508  1.00  0.00     0.275 C 
ATOM      4  O   ASN     4       1.283 -21.358   7.813  1.00  0.00    -0.268 OA
BRANCH   3   5
ATOM      5  CA  ASN     4      -0.666 -20.943   9.190  1.00  0.00     0.196 C 
BRANCH   5   6
ATOM      6  N   ASN     4      -0.030 -19.764   9.815  1.00  0.00    -0.228 NA
ATOM      7  C   LEU     3       0.145 -18.608   9.180  1.00  0.00     0.274 C 
ATOM      8  O   LEU     3      -0.202 -18.379   8.017  1.00  0.00    -0.268 OA
BRANCH   7   9
ATOM      9  CA  LEU     3       0.774 -17.499  10.023  1.00  0.00     0.186 C 
BRANCH   9  10
ATOM     10  N   LEU     3       1.456 -16.529   9.137  1.00  0.00    -0.229 NA
ATOM     11  C   GLY     2       2.759 -16.599   8.852  1.00  0.00     0.277 C 
ATOM     12  O   GLY     2       3.464 -17.547   9.167  1.00  0.00    -0.268 OA
BRANCH  11  13
ATOM     13  CA  GLY     2       3.314 -15.484   7.941  1.00  0.00     0.218 C 
BRANCH  13  14
ATOM     14  N   GLY     2       4.648 -14.920   8.260  1.00  0.00    -0.226 NA
ATOM     15  C   GLU     1       5.775 -15.616   8.076  1.00  0.00     0.289 C 
ATOM     16  O   GLU     1       5.768 -16.682   7.483  1.00  0.00    -0.268 OA
BRANCH  15  17
ATOM     17  CA  GLU     1       7.118 -15.003   8.554  1.00  0.00     0.381 C 
ATOM     18  N   GLU     1       7.196 -14.816  10.014  1.00  0.00     0.626 N 
BRANCH  17  19
ATOM     19  CB  GLU     1       8.273 -15.887   8.040  1.00  0.00     0.060 C 
BRANCH  19  20
ATOM     20  CG  GLU     1       9.214 -16.560   9.050  1.00  0.00     0.100 C 
BRANCH  20  21
ATOM     21  CD  GLU     1      10.647 -16.010   8.987  1.00  0.00     0.185 C 
ATOM     22  OE1 GLU     1      11.319 -15.990  10.034  1.00  0.00    -0.647 OA
ATOM     23  OE2 GLU     1      11.068 -15.578   7.900  1.00  0.00    -0.647 OA
ENDBRANCH  20  21
ENDBRANCH  19  20
ENDBRANCH  17  19
ENDBRANCH  15  17
ENDBRANCH  13  14
ENDBRANCH  11  13
ENDBRANCH   9  10
BRANCH   9  24
ATOM     24  CB  LEU     3      -0.331 -16.805  10.828  1.00  0.00     0.034 C 
BRANCH  24  25
ATOM     25  CG  LEU     3      -1.658 -16.653  10.062  1.00  0.00     0.002 C 
ATOM     26  CD1 LEU     3      -2.768 -17.380  10.817  1.00  0.00     0.000 C 
ATOM     27  CD2 LEU     3      -2.026 -15.177   9.879  1.00  0.00     0.000 C 
ENDBRANCH  24  25
ENDBRANCH   9  24
ENDBRANCH   7   9
ENDBRANCH   5   6
BRANCH   5  28
ATOM     28  CB  ASN     4      -1.752 -20.496   8.196  1.00  0.00     0.126 C 
BRANCH  28  29
ATOM     29  CG  ASN     4      -3.189 -20.755   8.690  1.00  0.00     0.276 C 
ATOM     30  ND2 ASN     4      -3.985 -21.375   7.860  1.00  0.00    -0.107 N 
ATOM     31  OD1 ASN     4      -3.583 -20.476   9.807  1.00  0.00    -0.269 OA
ENDBRANCH  28  29
ENDBRANCH   5  28
ENDBRANCH   3   5
ENDBRANCH   1   2
BRANCH   1  32
ATOM     32  CB  ARG     5       2.513 -24.266   9.427  1.00  0.00     0.036 C 
BRANCH  32  33
ATOM     33  CG  ARG     5       3.819 -24.501   8.666  1.00  0.00     0.029 C 
BRANCH  33  34
ATOM     34  CD  ARG     5       4.921 -23.636   9.270  1.00  0.00     0.145 C 
BRANCH  34  35
ATOM     35  NE  ARG     5       5.076 -22.351   8.547  1.00  0.00    -0.083 NA
ATOM     36  CZ  ARG     5       4.982 -21.138   9.113  1.00  0.00     0.782 C 
ATOM     37  NH2 ARG     5       5.374 -20.034   8.457  1.00  0.00     0.063 N 
ATOM     38  NH1 ARG     5       4.619 -20.994  10.380  1.00  0.00     0.063 N 
ENDBRANCH  34  35
ENDBRANCH  33  34
ENDBRANCH  32  33
ENDBRANCH   1  32
BRANCH   1  39
ATOM     39  C   ARG     5       0.508 -25.495   8.547  1.00  0.00     0.256 C 
ATOM     40  O   ARG     5       0.919 -26.453   7.885  1.00  0.00    -0.270 OA
ATOM     41  N   PRO     6      -0.533 -25.583   9.380  1.00  0.00    -0.312 N 
ATOM     42  CA  PRO     6      -1.401 -26.776   9.502  1.00  0.00     0.165 C 
ATOM     43  CD  PRO     6      -0.891 -24.588  10.415  1.00  0.00     0.105 C 
ATOM     44  CB  PRO     6      -2.496 -26.365  10.489  1.00  0.00     0.034 C 
ATOM     45  CG  PRO     6      -1.787 -25.360  11.385  1.00  0.00     0.027 C 
BRANCH  42  46
ATOM     46  C   PRO     6      -2.006 -27.172   8.145  1.00  0.00     0.272 C 
ATOM     47  N   SER     7      -2.160 -28.455   7.850  1.00  0.00    -0.226 NA
ATOM     48  O   PRO     6      -2.245 -26.305   7.299  1.00  0.00    -0.269 OA
BRANCH  47  49
ATOM     49  CA  SER     7      -1.796 -29.612   8.704  1.00  0.00     0.219 C 
BRANCH  49  50
ATOM     50  C   SER     7      -0.282 -29.888   8.684  1.00  0.00     0.277 C 
ATOM     51  O   SER     7       0.456 -29.241   9.420  1.00  0.00    -0.268 OA
ATOM     52  N   GLY     8       0.097 -30.980   8.036  1.00  0.00    -0.226 NA
BRANCH  52  53
ATOM     53  CA  GLY     8       1.527 -31.270   7.749  1.00  0.00     0.218 C 
BRANCH  53  54
ATOM     54  C   GLY     8       1.957 -32.741   7.613  1.00  0.00     0.277 C 
ATOM     55  N   GLY     9       0.992 -33.643   7.381  1.00  0.00    -0.226 NA
ATOM     56  O   GLY     8       3.138 -33.043   7.675  1.00  0.00    -0.268 OA
BRANCH  55  57
ATOM     57  CA  GLY     9       1.253 -35.092   7.268  1.00  0.00     0.218 C 
BRANCH  57  58
ATOM     58  C   GLY     9       0.059 -35.925   7.793  1.00  0.00     0.277 C 
ATOM     59  O   GLY     9      -1.081 -35.520   7.608  1.00  0.00    -0.268 OA
ATOM     60  N   CYS    10       0.234 -36.976   8.581  1.00  0.00    -0.228 NA
BRANCH  60  61
ATOM     61  CA  CYS    10       1.508 -37.512   9.118  1.00  0.00     0.198 C 
BRANCH  61  62
ATOM     62  CB  CYS    10       1.639 -37.304  10.631  1.00  0.00     0.103 C 
ATOM     63  SG  CYS    10       3.283 -36.874  11.297  1.00  0.00    -0.080 SA
ENDBRANCH  61  62
BRANCH  61  64
ATOM     64  C   CYS    10       1.683 -39.020   8.924  1.00  0.00     0.275 C 
ATOM     65  O   CYS    10       2.633 -39.434   8.262  1.00  0.00    -0.268 OA
ATOM     66  N   GLY    11       0.963 -39.753   9.757  1.00  0.00    -0.225 NA
BRANCH  66  67
ATOM     67  CA  GLY    11       0.418 -41.058   9.357  1.00  0.00     0.226 C 
BRANCH  67  68
ATOM     68  C   GLY    11       1.230 -42.086  10.160  1.00  0.00     0.211 C 
ATOM     69  O2  GLY    11       0.717 -42.454  11.239  1.00  0.00    -0.646 OA
ATOM     70  O1  GLY    11       2.099 -42.724   9.523  1.00  0.00    -0.646 OA
ENDBRANCH  67  68
ENDBRANCH  66  67
ENDBRANCH  61  64
ENDBRANCH  60  61
ENDBRANCH  57  58
ENDBRANCH  55  57
ENDBRANCH  53  54
ENDBRANCH  52  53
ENDBRANCH  49  50
BRANCH  49  71
ATOM     71  CB  SER     7      -2.499 -30.893   8.251  1.00  0.00     0.216 C 
ATOM     72  OG  SER     7      -3.585 -31.189   9.130  1.00  0.00    -0.218 OA
ENDBRANCH  49  71
ENDBRANCH  47  49
ENDBRANCH  42  46
ENDBRANCH   1  39
TORSDOF 33
ENDMDL
MODEL 8
REMARK VINA RESULT:      -2.7      9.897     20.379
REMARK WARNING: 32 MAX_TORS EXCEEDED!!!
REMARK  33 active torsions:
REMARK  status: ('A' for Active; 'I' for Inactive)
REMARK    1  A    between atoms: CA_2  and  C_8 
REMARK    2  A    between atoms: CA_2  and  CB_3 
REMARK    3  A    between atoms: CB_3  and  CG_4 
REMARK    4  A    between atoms: CG_4  and  CD_5 
REMARK       I    between atoms: C_8  and  N_10 
REMARK    5  A    between atoms: N_10  and  CA_11 
REMARK    6  A    between atoms: CA_11  and  C_12 
REMARK       I    between atoms: C_12  and  N_14 
REMARK    7  A    between atoms: N_14  and  CA_15 
REMARK    8  A    between atoms: CA_15  and  C_20 
REMARK    9  A    between atoms: CA_15  and  CB_16 
REMARK   10  A    between atoms: CB_16  and  CG_17 
REMARK       I    between atoms: C_20  and  N_22 
REMARK   11  A    between atoms: N_22  and  CA_23 
REMARK   12  A    between atoms: CA_23  and  CB_24 
REMARK   13  A    between atoms: CA_23  and  C_28 
REMARK   14  A    between atoms: CB_24  and  CG_25 
REMARK       I    between atoms: C_28  and  N_30 
REMARK   15  A    between atoms: N_30  and  CA_31 
REMARK   16  A    between atoms: CA_31  and  CB_32 
REMARK   17  A    between atoms: CA_31  and  C_39 
REMARK   18  A    between atoms: CB_32  and  CG_33 
REMARK   19  A    between atoms: CG_33  and  CD_34 
REMARK   20  A    between atoms: CD_34  and  NE_35 
REMARK       I    between atoms: C_39  and  N_41 
REMARK   21  A    between atoms: CA_42  and  C_46 
REMARK       I    between atoms: C_46  and  N_48 
REMARK   22  A    between atoms: N_48  and  CA_49 
REMARK   23  A    between atoms: CA_49  and  C_52 
REMARK   24  A    between atoms: CA_49  and  CB_50 
REMARK       I    between atoms: C_52  and  N_54 
REMARK   25  A    between atoms: N_54  and  CA_55 
REMARK   26  A    between atoms: CA_55  and  C_56 
REMARK       I    between atoms: C_56  and  N_58 
REMARK   27  A    between atoms: N_58  and  CA_59 
REMARK   28  A    between atoms: CA_59  and  C_60 
REMARK       I    between atoms: C_60  and  N_62 
REMARK   29  A    between atoms: N_62  and  CA_63 
REMARK   30  A    between atoms: CA_63  and  CB_64 
REMARK   31  A    between atoms: CA_63  and  C_66 
REMARK       I    between atoms: C_66  and  N_68 
REMARK   32  A    between atoms: N_68  and  CA_69 
REMARK   33  A    between atoms: CA_69  and  C_70 
ROOT
ATOM      1  CA  ARG     5       1.357 -24.099   8.438  1.00  0.00     0.185 C 
ENDROOT
BRANCH   1   2
ATOM      2  N   ARG     5       0.418 -23.061   8.903  1.00  0.00    -0.229 NA
ATOM      3  C   ASN     4       0.316 -21.837   8.409  1.00  0.00     0.275 C 
ATOM      4  O   ASN     4       1.150 -21.317   7.675  1.00  0.00    -0.268 OA
BRANCH   3   5
ATOM      5  CA  ASN     4      -0.776 -21.002   9.110  1.00  0.00     0.196 C 
BRANCH   5   6
ATOM      6  N   ASN     4      -0.173 -19.885   9.868  1.00  0.00    -0.228 NA
ATOM      7  C   LEU     3      -0.006 -18.666   9.361  1.00  0.00     0.274 C 
ATOM      8  O   LEU     3      -0.336 -18.323   8.222  1.00  0.00    -0.268 OA
BRANCH   7   9
ATOM      9  CA  LEU     3       0.586 -17.641  10.327  1.00  0.00     0.186 C 
BRANCH   9  10
ATOM     10  N   LEU     3       1.470 -16.714   9.586  1.00  0.00    -0.229 NA
ATOM     11  C   GLY     2       2.730 -17.017   9.262  1.00  0.00     0.277 C 
ATOM     12  O   GLY     2       3.210 -18.131   9.408  1.00  0.00    -0.268 OA
BRANCH  11  13
ATOM     13  CA  GLY     2       3.521 -15.917   8.522  1.00  0.00     0.218 C 
BRANCH  13  14
ATOM     14  N   GLY     2       4.890 -15.601   8.997  1.00  0.00    -0.226 NA
ATOM     15  C   GLU     1       5.981 -16.040   8.359  1.00  0.00     0.289 C 
ATOM     16  O   GLU     1       5.900 -16.579   7.268  1.00  0.00    -0.268 OA
BRANCH  15  17
ATOM     17  CA  GLU     1       7.373 -15.774   8.993  1.00  0.00     0.381 C 
ATOM     18  N   GLU     1       7.448 -14.509   9.745  1.00  0.00     0.626 N 
BRANCH  17  19
ATOM     19  CB  GLU     1       7.746 -16.978   9.882  1.00  0.00     0.060 C 
BRANCH  19  20
ATOM     20  CG  GLU     1       8.784 -16.797  11.000  1.00  0.00     0.100 C 
BRANCH  20  21
ATOM     21  CD  GLU     1      10.224 -16.726  10.469  1.00  0.00     0.185 C 
ATOM     22  OE1 GLU     1      10.889 -17.777  10.424  1.00  0.00    -0.647 OA
ATOM     23  OE2 GLU     1      10.678 -15.618  10.136  1.00  0.00    -0.647 OA
ENDBRANCH  20  21
ENDBRANCH  19  20
ENDBRANCH  17  19
ENDBRANCH  15  17
ENDBRANCH  13  14
ENDBRANCH  11  13
ENDBRANCH   9  10
BRANCH   9  24
ATOM     24  CB  LEU     3      -0.561 -16.872  10.995  1.00  0.00     0.034 C 
BRANCH  24  25
ATOM     25  CG  LEU     3      -0.977 -15.598  10.240  1.00  0.00     0.002 C 
ATOM     26  CD1 LEU     3      -2.348 -15.810   9.600  1.00  0.00     0.000 C 
ATOM     27  CD2 LEU     3      -1.017 -14.386  11.177  1.00  0.00     0.000 C 
ENDBRANCH  24  25
ENDBRANCH   9  24
ENDBRANCH   7   9
ENDBRANCH   5   6
BRANCH   5  28
ATOM     28  CB  ASN     4      -1.808 -20.465   8.104  1.00  0.00     0.126 C 
BRANCH  28  29
ATOM     29  CG  ASN     4      -3.245 -20.413   8.659  1.00  0.00     0.276 C 
ATOM     30  ND2 ASN     4      -3.773 -19.226   8.790  1.00  0.00    -0.107 N 
ATOM     31  OD1 ASN     4      -3.911 -21.399   8.910  1.00  0.00    -0.269 OA
ENDBRANCH  28  29
ENDBRANCH   5  28
ENDBRANCH   3   5
ENDBRANCH   1   2
BRANCH   1  32
ATOM     32  CB  ARG     5       2.629 -24.096   9.294  1.00  0.00     0.036 C 
BRANCH  32  33
ATOM     33  CG  ARG     5       3.920 -24.220   8.484  1.00  0.00     0.029 C 
BRANCH  33  34
ATOM     34  CD  ARG     5       5.104 -23.803   9.351  1.00  0.00     0.145 C 
BRANCH  34  35
ATOM     35  NE  ARG     5       5.669 -22.499   8.927  1.00  0.00    -0.083 NA
ATOM     36  CZ  ARG     5       5.725 -21.403   9.698  1.00  0.00     0.782 C 
ATOM     37  NH2 ARG     5       6.465 -20.340   9.341  1.00  0.00     0.063 N 
ATOM     38  NH1 ARG     5       5.157 -21.371  10.895  1.00  0.00     0.063 N 
ENDBRANCH  34  35
ENDBRANCH  33  34
ENDBRANCH  32  33
ENDBRANCH   1  32
BRANCH   1  39
ATOM     39  C   ARG     5       0.681 -25.480   8.524  1.00  0.00     0.256 C 
ATOM     40  O   ARG     5       1.149 -26.432   7.890  1.00  0.00    -0.270 OA
ATOM     41  N   PRO     6      -0.340 -25.609   9.376  1.00  0.00    -0.312 N 
ATOM     42  CA  PRO     6      -1.121 -26.853   9.556  1.00  0.00     0.165 C 
ATOM     43  CD  PRO     6      -0.752 -24.603  10.379  1.00  0.00     0.105 C 
ATOM     44  CB  PRO     6      -2.228 -26.482  10.544  1.00  0.00     0.034 C 
ATOM     45  CG  PRO     6      -1.578 -25.398  11.392  1.00  0.00     0.027 C 
BRANCH  42  46
ATOM     46  C   PRO     6      -1.715 -27.341   8.224  1.00  0.00     0.272 C 
ATOM     47  N   SER     7      -1.747 -28.640   7.962  1.00  0.00    -0.226 NA
ATOM     48  O   PRO     6      -2.060 -26.523   7.366  1.00  0.00    -0.269 OA
BRANCH  47  49
ATOM     49  CA  SER     7      -1.248 -29.733   8.831  1.00  0.00     0.219 C 
BRANCH  49  50
ATOM     50  C   SER     7       0.289 -29.758   8.901  1.00  0.00     0.277 C 
ATOM     51  O   SER     7       0.862 -29.092   9.756  1.00  0.00    -0.268 OA
ATOM     52  N   GLY     8       0.884 -30.692   8.171  1.00  0.00    -0.226 NA
BRANCH  52  53
ATOM     53  CA  GLY     8       2.357 -30.711   7.967  1.00  0.00     0.218 C 
BRANCH  53  54
ATOM     54  C   GLY     8       3.031 -32.063   7.674  1.00  0.00     0.277 C 
ATOM     55  N   GLY     9       4.345 -32.160   7.928  1.00  0.00    -0.226 NA
ATOM     56  O   GLY     8       2.369 -33.005   7.270  1.00  0.00    -0.268 OA
BRANCH  55  57
ATOM     57  CA  GLY     9       5.130 -33.382   7.658  1.00  0.00     0.218 C 
BRANCH  57  58
ATOM     58  C   GLY     9       6.638 -33.154   7.919  1.00  0.00     0.277 C 
ATOM     59  O   GLY     9       7.086 -32.015   7.895  1.00  0.00    -0.268 OA
ATOM     60  N   CYS    10       7.493 -34.164   8.003  1.00  0.00    -0.228 NA
BRANCH  60  61
ATOM     61  CA  CYS    10       7.214 -35.611   7.837  1.00  0.00     0.198 C 
BRANCH  61  62
ATOM     62  CB  CYS    10       8.463 -36.406   7.438  1.00  0.00     0.103 C 
ATOM     63  SG  CYS    10      10.060 -35.523   7.395  1.00  0.00    -0.080 SA
ENDBRANCH  61  62
BRANCH  61  64
ATOM     64  C   CYS    10       6.714 -36.300   9.108  1.00  0.00     0.275 C 
ATOM     65  O   CYS    10       7.437 -36.325  10.103  1.00  0.00    -0.268 OA
ATOM     66  N   GLY    11       5.411 -36.535   9.113  1.00  0.00    -0.225 NA
BRANCH  66  67
ATOM     67  CA  GLY    11       4.845 -37.712   9.785  1.00  0.00     0.226 C 
BRANCH  67  68
ATOM     68  C   GLY    11       3.700 -38.174   8.869  1.00  0.00     0.211 C 
ATOM     69  O2  GLY    11       3.450 -37.426   7.900  1.00  0.00    -0.646 OA
ATOM     70  O1  GLY    11       3.389 -39.385   8.941  1.00  0.00    -0.646 OA
ENDBRANCH  67  68
ENDBRANCH  66  67
ENDBRANCH  61  64
ENDBRANCH  60  61
ENDBRANCH  57  58
ENDBRANCH  55  57
ENDBRANCH  53  54
ENDBRANCH  52  53
ENDBRANCH  49  50
BRANCH  49  71
ATOM     71  CB  SER     7      -1.705 -31.106   8.332  1.00  0.00     0.216 C 
ATOM     72  OG  SER     7      -1.748 -32.030   9.420  1.00  0.00    -0.218 OA
ENDBRANCH  49  71
ENDBRANCH  47  49
ENDBRANCH  42  46
ENDBRANCH   1  39
TORSDOF 33
ENDMDL
MODEL 9
REMARK VINA RESULT:      -2.6      3.195      5.697
REMARK WARNING: 32 MAX_TORS EXCEEDED!!!
REMARK  33 active torsions:
REMARK  status: ('A' for Active; 'I' for Inactive)
REMARK    1  A    between atoms: CA_2  and  C_8 
REMARK    2  A    between atoms: CA_2  and  CB_3 
REMARK    3  A    between atoms: CB_3  and  CG_4 
REMARK    4  A    between atoms: CG_4  and  CD_5 
REMARK       I    between atoms: C_8  and  N_10 
REMARK    5  A    between atoms: N_10  and  CA_11 
REMARK    6  A    between atoms: CA_11  and  C_12 
REMARK       I    between atoms: C_12  and  N_14 
REMARK    7  A    between atoms: N_14  and  CA_15 
REMARK    8  A    between atoms: CA_15  and  C_20 
REMARK    9  A    between atoms: CA_15  and  CB_16 
REMARK   10  A    between atoms: CB_16  and  CG_17 
REMARK       I    between atoms: C_20  and  N_22 
REMARK   11  A    between atoms: N_22  and  CA_23 
REMARK   12  A    between atoms: CA_23  and  CB_24 
REMARK   13  A    between atoms: CA_23  and  C_28 
REMARK   14  A    between atoms: CB_24  and  CG_25 
REMARK       I    between atoms: C_28  and  N_30 
REMARK   15  A    between atoms: N_30  and  CA_31 
REMARK   16  A    between atoms: CA_31  and  CB_32 
REMARK   17  A    between atoms: CA_31  and  C_39 
REMARK   18  A    between atoms: CB_32  and  CG_33 
REMARK   19  A    between atoms: CG_33  and  CD_34 
REMARK   20  A    between atoms: CD_34  and  NE_35 
REMARK       I    between atoms: C_39  and  N_41 
REMARK   21  A    between atoms: CA_42  and  C_46 
REMARK       I    between atoms: C_46  and  N_48 
REMARK   22  A    between atoms: N_48  and  CA_49 
REMARK   23  A    between atoms: CA_49  and  C_52 
REMARK   24  A    between atoms: CA_49  and  CB_50 
REMARK       I    between atoms: C_52  and  N_54 
REMARK   25  A    between atoms: N_54  and  CA_55 
REMARK   26  A    between atoms: CA_55  and  C_56 
REMARK       I    between atoms: C_56  and  N_58 
REMARK   27  A    between atoms: N_58  and  CA_59 
REMARK   28  A    between atoms: CA_59  and  C_60 
REMARK       I    between atoms: C_60  and  N_62 
REMARK   29  A    between atoms: N_62  and  CA_63 
REMARK   30  A    between atoms: CA_63  and  CB_64 
REMARK   31  A    between atoms: CA_63  and  C_66 
REMARK       I    between atoms: C_66  and  N_68 
REMARK   32  A    between atoms: N_68  and  CA_69 
REMARK   33  A    between atoms: CA_69  and  C_70 
ROOT
ATOM      1  CA  ARG     5      -3.199 -16.640  10.053  1.00  0.00     0.185 C 
ENDROOT
BRANCH   1   2
ATOM      2  N   ARG     5      -1.826 -17.165  10.172  1.00  0.00    -0.229 NA
ATOM      3  C   ASN     4      -1.486 -18.445  10.167  1.00  0.00     0.275 C 
ATOM      4  O   ASN     4      -2.279 -19.369  10.317  1.00  0.00    -0.268 OA
BRANCH   3   5
ATOM      5  CA  ASN     4       0.037 -18.657  10.295  1.00  0.00     0.196 C 
BRANCH   5   6
ATOM      6  N   ASN     4       0.349 -20.087  10.503  1.00  0.00    -0.228 NA
ATOM      7  C   LEU     3       0.505 -20.952   9.504  1.00  0.00     0.274 C 
ATOM      8  O   LEU     3       0.419 -20.670   8.305  1.00  0.00    -0.268 OA
BRANCH   7   9
ATOM      9  CA  LEU     3       0.878 -22.371   9.933  1.00  0.00     0.186 C 
BRANCH   9  10
ATOM     10  N   LEU     3       0.703 -23.295   8.790  1.00  0.00    -0.229 NA
ATOM     11  C   GLY     2      -0.388 -24.048   8.626  1.00  0.00     0.277 C 
ATOM     12  O   GLY     2      -1.394 -23.927   9.311  1.00  0.00    -0.268 OA
BRANCH  11  13
ATOM     13  CA  GLY     2      -0.387 -24.984   7.399  1.00  0.00     0.218 C 
BRANCH  13  14
ATOM     14  N   GLY     2      -0.674 -26.422   7.617  1.00  0.00    -0.226 NA
ATOM     15  C   GLU     1       0.261 -27.365   7.450  1.00  0.00     0.289 C 
ATOM     16  O   GLU     1       1.431 -27.068   7.272  1.00  0.00    -0.268 OA
BRANCH  15  17
ATOM     17  CA  GLU     1      -0.153 -28.856   7.572  1.00  0.00     0.381 C 
ATOM     18  N   GLU     1       0.465 -29.549   8.716  1.00  0.00     0.626 N 
BRANCH  17  19
ATOM     19  CB  GLU     1      -1.692 -28.935   7.633  1.00  0.00     0.060 C 
BRANCH  19  20
ATOM     20  CG  GLU     1      -2.373 -29.376   8.938  1.00  0.00     0.100 C 
BRANCH  20  21
ATOM     21  CD  GLU     1      -3.539 -30.347   8.701  1.00  0.00     0.185 C 
ATOM     22  OE1 GLU     1      -3.812 -31.172   9.592  1.00  0.00    -0.647 OA
ATOM     23  OE2 GLU     1      -4.145 -30.292   7.617  1.00  0.00    -0.647 OA
ENDBRANCH  20  21
ENDBRANCH  19  20
ENDBRANCH  17  19
ENDBRANCH  15  17
ENDBRANCH  13  14
ENDBRANCH  11  13
ENDBRANCH   9  10
BRANCH   9  24
ATOM     24  CB  LEU     3       2.335 -22.375  10.409  1.00  0.00     0.034 C 
BRANCH  24  25
ATOM     25  CG  LEU     3       3.244 -21.398   9.641  1.00  0.00     0.002 C 
ATOM     26  CD1 LEU     3       4.181 -20.697  10.622  1.00  0.00     0.000 C 
ATOM     27  CD2 LEU     3       4.058 -22.127   8.567  1.00  0.00     0.000 C 
ENDBRANCH  24  25
ENDBRANCH   9  24
ENDBRANCH   7   9
ENDBRANCH   5   6
BRANCH   5  28
ATOM     28  CB  ASN     4       0.786 -18.124   9.062  1.00  0.00     0.126 C 
BRANCH  28  29
ATOM     29  CG  ASN     4       1.944 -17.167   9.407  1.00  0.00     0.276 C 
ATOM     30  ND2 ASN     4       2.303 -17.119  10.662  1.00  0.00    -0.107 N 
ATOM     31  OD1 ASN     4       2.561 -16.524   8.580  1.00  0.00    -0.269 OA
ENDBRANCH  28  29
ENDBRANCH   5  28
ENDBRANCH   3   5
ENDBRANCH   1   2
BRANCH   1  32
ATOM     32  CB  ARG     5      -3.940 -16.767  11.388  1.00  0.00     0.036 C 
BRANCH  32  33
ATOM     33  CG  ARG     5      -5.400 -17.199  11.247  1.00  0.00     0.029 C 
BRANCH  33  34
ATOM     34  CD  ARG     5      -5.469 -18.716  11.106  1.00  0.00     0.145 C 
BRANCH  34  35
ATOM     35  NE  ARG     5      -6.863 -19.217  11.179  1.00  0.00    -0.083 NA
ATOM     36  CZ  ARG     5      -7.575 -19.654  10.130  1.00  0.00     0.782 C 
ATOM     37  NH2 ARG     5      -8.731 -20.317  10.303  1.00  0.00     0.063 N 
ATOM     38  NH1 ARG     5      -7.109 -19.562   8.893  1.00  0.00     0.063 N 
ENDBRANCH  34  35
ENDBRANCH  33  34
ENDBRANCH  32  33
ENDBRANCH   1  32
BRANCH   1  39
ATOM     39  C   ARG     5      -3.149 -15.160   9.629  1.00  0.00     0.256 C 
ATOM     40  O   ARG     5      -2.116 -14.507   9.804  1.00  0.00    -0.270 OA
ATOM     41  N   PRO     6      -4.215 -14.673   8.987  1.00  0.00    -0.312 N 
ATOM     42  CA  PRO     6      -4.346 -13.268   8.541  1.00  0.00     0.165 C 
ATOM     43  CD  PRO     6      -5.350 -15.474   8.478  1.00  0.00     0.105 C 
ATOM     44  CB  PRO     6      -5.757 -13.171   7.959  1.00  0.00     0.034 C 
ATOM     45  CG  PRO     6      -6.003 -14.576   7.426  1.00  0.00     0.027 C 
BRANCH  42  46
ATOM     46  C   PRO     6      -4.169 -12.288   9.713  1.00  0.00     0.272 C 
ATOM     47  N   SER     7      -5.134 -11.422   9.990  1.00  0.00    -0.226 NA
ATOM     48  O   PRO     6      -3.094 -12.239  10.320  1.00  0.00    -0.269 OA
BRANCH  47  49
ATOM     49  CA  SER     7      -6.421 -11.268   9.270  1.00  0.00     0.219 C 
BRANCH  49  50
ATOM     50  C   SER     7      -6.525  -9.904   8.564  1.00  0.00     0.277 C 
ATOM     51  O   SER     7      -6.960  -9.853   7.418  1.00  0.00    -0.268 OA
ATOM     52  N   GLY     8      -6.354  -8.840   9.335  1.00  0.00    -0.226 NA
BRANCH  52  53
ATOM     53  CA  GLY     8      -6.216  -7.472   8.770  1.00  0.00     0.218 C 
BRANCH  53  54
ATOM     54  C   GLY     8      -7.232  -6.400   9.205  1.00  0.00     0.277 C 
ATOM     55  N   GLY     9      -7.133  -5.193   8.630  1.00  0.00    -0.226 NA
ATOM     56  O   GLY     8      -8.109  -6.676  10.007  1.00  0.00    -0.268 OA
BRANCH  55  57
ATOM     57  CA  GLY     9      -8.014  -4.059   8.977  1.00  0.00     0.218 C 
BRANCH  57  58
ATOM     58  C   GLY     9      -8.284  -3.156   7.750  1.00  0.00     0.277 C 
ATOM     59  O   GLY     9      -7.370  -2.489   7.283  1.00  0.00    -0.268 OA
ATOM     60  N   CYS    10      -9.510  -2.952   7.290  1.00  0.00    -0.228 NA
BRANCH  60  61
ATOM     61  CA  CYS    10     -10.788  -3.474   7.834  1.00  0.00     0.198 C 
BRANCH  61  62
ATOM     62  CB  CYS    10     -10.731  -4.979   8.118  1.00  0.00     0.103 C 
ATOM     63  SG  CYS    10     -12.290  -5.925   8.037  1.00  0.00    -0.080 SA
ENDBRANCH  61  62
BRANCH  61  64
ATOM     64  C   CYS    10     -11.198  -2.849   9.170  1.00  0.00     0.275 C 
ATOM     65  O   CYS    10     -11.075  -3.505  10.203  1.00  0.00    -0.268 OA
ATOM     66  N   GLY    11     -11.356  -1.537   9.120  1.00  0.00    -0.225 NA
BRANCH  66  67
ATOM     67  CA  GLY    11     -12.355  -0.851   9.953  1.00  0.00     0.226 C 
BRANCH  67  68
ATOM     68  C   GLY    11     -11.855   0.599  10.051  1.00  0.00     0.211 C 
ATOM     69  O2  GLY    11     -12.600   1.385  10.676  1.00  0.00    -0.646 OA
ATOM     70  O1  GLY    11     -10.632   0.777   9.847  1.00  0.00    -0.646 OA
ENDBRANCH  67  68
ENDBRANCH  66  67
ENDBRANCH  61  64
ENDBRANCH  60  61
ENDBRANCH  57  58
ENDBRANCH  55  57
ENDBRANCH  53  54
ENDBRANCH  52  53
ENDBRANCH  49  50
BRANCH  49  71
ATOM     71  CB  SER     7      -7.617 -11.383  10.217  1.00  0.00     0.216 C 
ATOM     72  OG  SER     7      -8.768 -11.825   9.497  1.00  0.00    -0.218 OA
ENDBRANCH  49  71
ENDBRANCH  47  49
ENDBRANCH  42  46
ENDBRANCH   1  39
TORSDOF 33
ENDMDL
