MODEL 1
REMARK VINA RESULT:      -5.5      0.000      0.000
REMARK WARNING: 32 MAX_TORS EXCEEDED!!!
REMARK  42 active torsions:
REMARK  status: ('A' for Active; 'I' for Inactive)
REMARK    1  A    between atoms: CA_2  and  CB_3 
REMARK    2  A    between atoms: CA_2  and  C_11 
REMARK    3  A    between atoms: CB_3  and  CG_4 
REMARK       I    between atoms: C_11  and  N_13 
REMARK    4  A    between atoms: N_13  and  CA_14 
REMARK    5  A    between atoms: CA_14  and  CB_15 
REMARK    6  A    between atoms: CA_14  and  C_19 
REMARK    7  A    between atoms: CB_15  and  CG_16 
REMARK       I    between atoms: C_19  and  N_21 
REMARK    8  A    between atoms: CA_22  and  C_26 
REMARK       I    between atoms: C_26  and  N_28 
REMARK    9  A    between atoms: N_28  and  CA_29 
REMARK   10  A    between atoms: CA_29  and  C_35 
REMARK   11  A    between atoms: CA_29  and  CB_30 
REMARK   12  A    between atoms: CB_30  and  CG_31 
REMARK   13  A    between atoms: CG_31  and  CD_32 
REMARK       I    between atoms: C_35  and  N_37 
REMARK   14  A    between atoms: N_37  and  CA_38 
REMARK   15  A    between atoms: CA_38  and  CB_39 
REMARK   16  A    between atoms: CA_38  and  C_47 
REMARK   17  A    between atoms: CB_39  and  CG_40 
REMARK       I    between atoms: C_47  and  N_49 
REMARK   18  A    between atoms: N_49  and  CA_50 
REMARK   19  A    between atoms: CA_50  and  CB_51 
REMARK   20  A    between atoms: CA_50  and  C_58 
REMARK   21  A    between atoms: CB_51  and  CG_52 
REMARK   22  A    between atoms: CG_52  and  CD_53 
REMARK   23  A    between atoms: CD_53  and  NE_54 
REMARK       I    between atoms: C_58  and  N_60 
REMARK   24  A    between atoms: N_60  and  CA_61 
REMARK   25  A    between atoms: CA_61  and  C_66 
REMARK   26  A    between atoms: CA_61  and  CB_62 
REMARK   27  A    between atoms: CB_62  and  CG_63 
REMARK       I    between atoms: C_66  and  N_68 
REMARK   28  A    between atoms: N_68  and  CA_69 
REMARK   29  A    between atoms: CA_69  and  CB_70 
REMARK   30  A    between atoms: CA_69  and  C_77 
REMARK   31  A    between atoms: CB_70  and  CG_71 
REMARK       I    between atoms: C_77  and  N_79 
REMARK   32  A    between atoms: N_79  and  CA_80 
REMARK   33  A    between atoms: CA_80  and  CB_81 
REMARK   34  A    between atoms: CA_80  and  C_91 
REMARK   35  A    between atoms: CB_81  and  CG_82 
REMARK       I    between atoms: C_91  and  N_93 
REMARK   36  A    between atoms: N_93  and  CA_94 
REMARK   37  A    between atoms: CA_94  and  C_95 
REMARK       I    between atoms: C_95  and  N_97 
REMARK   38  A    between atoms: N_97  and  CA_98 
REMARK   39  A    between atoms: CA_98  and  C_101 
REMARK   40  A    between atoms: CA_98  and  CB_99 
REMARK       I    between atoms: C_101  and  N_103 
REMARK   41  A    between atoms: N_103  and  CA_104 
REMARK   42  A    between atoms: CA_104  and  C_105 
ROOT
ATOM      1  CA  ARG     6      -8.353 -21.060   7.290  1.00  0.00     0.186 C 
ENDROOT
BRANCH   1   2
ATOM      2  N   ARG     6      -7.439 -21.708   6.321  1.00  0.00    -0.229 NA
ATOM      3  C   TYR     5      -7.609 -21.609   4.996  1.00  0.00     0.275 C 
ATOM      4  O   TYR     5      -8.520 -20.947   4.497  1.00  0.00    -0.268 OA
BRANCH   3   5
ATOM      5  CA  TYR     5      -6.547 -22.267   4.101  1.00  0.00     0.191 C 
BRANCH   5   6
ATOM      6  N   TYR     5      -5.346 -22.726   4.846  1.00  0.00    -0.228 NA
ATOM      7  C   GLU     4      -4.091 -22.530   4.409  1.00  0.00     0.274 C 
ATOM      8  O   GLU     4      -3.833 -21.836   3.434  1.00  0.00    -0.268 OA
BRANCH   7   9
ATOM      9  CA  GLU     4      -2.964 -22.946   5.376  1.00  0.00     0.187 C 
BRANCH   9  10
ATOM     10  CB  GLU     4      -1.838 -21.900   5.346  1.00  0.00     0.045 C 
BRANCH  10  11
ATOM     11  CG  GLU     4      -1.576 -21.140   6.666  1.00  0.00     0.100 C 
BRANCH  11  12
ATOM     12  CD  GLU     4      -2.396 -19.860   6.828  1.00  0.00     0.185 C 
ATOM     13  OE1 GLU     4      -3.081 -19.484   5.842  1.00  0.00    -0.647 OA
ATOM     14  OE2 GLU     4      -1.997 -19.044   7.683  1.00  0.00    -0.647 OA
ENDBRANCH  11  12
ENDBRANCH  10  11
ENDBRANCH   9  10
BRANCH   9  15
ATOM     15  N   GLU     4      -2.387 -24.268   5.064  1.00  0.00    -0.229 NA
ATOM     16  C   PRO     3      -2.623 -25.428   5.665  1.00  0.00     0.272 C 
ATOM     17  O   PRO     3      -3.634 -25.651   6.333  1.00  0.00    -0.269 OA
BRANCH  16  18
ATOM     18  CA  PRO     3      -1.857 -26.625   5.098  1.00  0.00     0.165 C 
ATOM     19  N   PRO     3      -1.738 -26.645   3.625  1.00  0.00    -0.312 N 
ATOM     20  CD  PRO     3      -0.376 -27.097   3.240  1.00  0.00     0.105 C 
ATOM     21  C   ASP     2      -2.768 -26.435   2.785  1.00  0.00     0.257 C 
ATOM     22  CG  PRO     3       0.257 -27.561   4.561  1.00  0.00     0.027 C 
ATOM     23  CB  PRO     3      -0.421 -26.690   5.615  1.00  0.00     0.034 C 
ATOM     24  O   ASP     2      -3.932 -26.423   3.212  1.00  0.00    -0.270 OA
BRANCH  21  25
ATOM     25  CA  ASP     2      -2.545 -26.566   1.261  1.00  0.00     0.195 C 
BRANCH  25  26
ATOM     26  CB  ASP     2      -1.726 -25.436   0.585  1.00  0.00     0.132 C 
BRANCH  26  27
ATOM     27  CG  ASP     2      -1.871 -24.121   1.374  1.00  0.00     0.188 C 
ATOM     28  OD2 ASP     2      -2.679 -23.287   0.892  1.00  0.00    -0.647 OA
ATOM     29  OD1 ASP     2      -0.862 -23.734   2.014  1.00  0.00    -0.647 OA
ENDBRANCH  26  27
ENDBRANCH  25  26
BRANCH  25  30
ATOM     30  N   ASP     2      -3.812 -26.532   0.511  1.00  0.00    -0.228 NA
ATOM     31  C   TYR     1      -4.536 -27.565   0.147  1.00  0.00     0.289 C 
ATOM     32  O   TYR     1      -4.387 -28.749   0.465  1.00  0.00    -0.268 OA
BRANCH  31  33
ATOM     33  CA  TYR     1      -5.664 -27.166  -0.799  1.00  0.00     0.385 C 
ATOM     34  N   TYR     1      -5.231 -27.476  -2.172  1.00  0.00     0.626 N 
BRANCH  33  35
ATOM     35  CB  TYR     1      -6.905 -27.954  -0.386  1.00  0.00     0.075 C 
BRANCH  35  36
ATOM     36  CG  TYR     1      -8.105 -27.054  -0.053  1.00  0.00    -0.019 A 
ATOM     37  CD2 TYR     1      -8.587 -26.943   1.242  1.00  0.00    -0.002 A 
ATOM     38  CE2 TYR     1      -9.581 -26.023   1.539  1.00  0.00     0.027 A 
ATOM     39  CZ  TYR     1     -10.092 -25.220   0.520  1.00  0.00     0.131 A 
ATOM     40  CE1 TYR     1      -9.635 -25.365  -0.778  1.00  0.00     0.027 A 
ATOM     41  OH  TYR     1     -10.918 -24.195   0.813  1.00  0.00    -0.190 OA
ATOM     42  CD1 TYR     1      -8.641 -26.285  -1.075  1.00  0.00    -0.002 A 
ENDBRANCH  35  36
ENDBRANCH  33  35
ENDBRANCH  31  33
ENDBRANCH  25  30
ENDBRANCH  21  25
ENDBRANCH  16  18
ENDBRANCH   9  15
ENDBRANCH   7   9
ENDBRANCH   5   6
BRANCH   5  43
ATOM     43  CB  TYR     5      -7.149 -23.435   3.301  1.00  0.00     0.060 C 
BRANCH  43  44
ATOM     44  CG  TYR     5      -7.134 -23.173   1.786  1.00  0.00    -0.020 A 
ATOM     45  CD2 TYR     5      -8.069 -22.325   1.205  1.00  0.00    -0.002 A 
ATOM     46  CE2 TYR     5      -8.043 -22.089  -0.166  1.00  0.00     0.027 A 
ATOM     47  CZ  TYR     5      -7.081 -22.699  -0.956  1.00  0.00     0.131 A 
ATOM     48  CE1 TYR     5      -6.131 -23.535  -0.381  1.00  0.00     0.027 A 
ATOM     49  OH  TYR     5      -7.134 -22.586  -2.301  1.00  0.00    -0.190 OA
ATOM     50  CD1 TYR     5      -6.165 -23.777   0.993  1.00  0.00    -0.002 A 
ENDBRANCH  43  44
ENDBRANCH   5  43
ENDBRANCH   3   5
ENDBRANCH   1   2
BRANCH   1  51
ATOM     51  CB  ARG     6      -8.918 -22.036   8.317  1.00  0.00     0.036 C 
BRANCH  51  52
ATOM     52  CG  ARG     6     -10.417 -22.300   8.155  1.00  0.00     0.029 C 
BRANCH  52  53
ATOM     53  CD  ARG     6     -10.664 -23.269   7.003  1.00  0.00     0.145 C 
BRANCH  53  54
ATOM     54  NE  ARG     6     -11.552 -22.673   5.992  1.00  0.00    -0.083 NA
ATOM     55  CZ  ARG     6     -11.490 -22.898   4.666  1.00  0.00     0.782 C 
ATOM     56  NH2 ARG     6     -12.292 -22.238   3.828  1.00  0.00     0.063 N 
ATOM     57  NH1 ARG     6     -10.569 -23.715   4.167  1.00  0.00     0.063 N 
ENDBRANCH  53  54
ENDBRANCH  52  53
ENDBRANCH  51  52
ENDBRANCH   1  51
BRANCH   1  58
ATOM     58  C   ARG     6      -7.669 -19.937   8.081  1.00  0.00     0.274 C 
ATOM     59  N   ASN     7      -7.420 -18.822   7.401  1.00  0.00    -0.228 NA
ATOM     60  O   ARG     6      -7.390 -20.121   9.266  1.00  0.00    -0.268 OA
BRANCH  59  61
ATOM     61  CA  ASN     7      -6.858 -17.601   8.016  1.00  0.00     0.196 C 
BRANCH  61  62
ATOM     62  C   ASN     7      -7.571 -16.332   7.510  1.00  0.00     0.275 C 
ATOM     63  N   PHE     8      -8.286 -16.446   6.381  1.00  0.00    -0.228 NA
ATOM     64  O   ASN     7      -7.768 -15.447   8.320  1.00  0.00    -0.268 OA
BRANCH  63  65
ATOM     65  CA  PHE     8      -9.109 -15.365   5.786  1.00  0.00     0.191 C 
BRANCH  65  66
ATOM     66  CB  PHE     8      -8.185 -14.453   4.967  1.00  0.00     0.060 C 
BRANCH  66  67
ATOM     67  CG  PHE     8      -7.861 -13.106   5.640  1.00  0.00    -0.020 A 
ATOM     68  CD1 PHE     8      -6.567 -12.839   6.068  1.00  0.00    -0.004 A 
ATOM     69  CE1 PHE     8      -6.296 -11.664   6.768  1.00  0.00    -0.000 A 
ATOM     70  CZ  PHE     8      -7.317 -10.762   7.019  1.00  0.00    -0.000 A 
ATOM     71  CE2 PHE     8      -8.611 -11.021   6.580  1.00  0.00    -0.000 A 
ATOM     72  CD2 PHE     8      -8.882 -12.197   5.880  1.00  0.00    -0.004 A 
ENDBRANCH  66  67
ENDBRANCH  65  66
BRANCH  65  73
ATOM     73  C   PHE     8     -10.318 -15.848   4.953  1.00  0.00     0.275 C 
ATOM     74  N   TRP     9     -10.409 -17.163   4.746  1.00  0.00    -0.228 NA
ATOM     75  O   PHE     8     -11.005 -15.050   4.311  1.00  0.00    -0.268 OA
BRANCH  74  76
ATOM     76  CA  TRP     9     -11.580 -17.775   4.071  1.00  0.00     0.191 C 
BRANCH  76  77
ATOM     77  CB  TRP     9     -11.109 -18.438   2.766  1.00  0.00     0.062 C 
BRANCH  77  78
ATOM     78  CG  TRP     9     -11.472 -17.635   1.518  1.00  0.00     0.001 A 
ATOM     79  CD1 TRP     9     -12.293 -16.590   1.473  1.00  0.00     0.095 A 
ATOM     80  NE1 TRP     9     -12.610 -16.323   0.212  1.00  0.00    -0.244 NA
ATOM     81  CE2 TRP     9     -11.989 -17.174  -0.591  1.00  0.00     0.081 A 
ATOM     82  CD2 TRP     9     -11.258 -18.042   0.205  1.00  0.00     0.015 A 
ATOM     83  CZ2 TRP     9     -12.041 -17.387  -1.968  1.00  0.00     0.019 A 
ATOM     84  CE3 TRP     9     -10.593 -19.126  -0.350  1.00  0.00     0.001 A 
ATOM     85  CZ3 TRP     9     -10.655 -19.347  -1.722  1.00  0.00     0.000 A 
ATOM     86  CH2 TRP     9     -11.367 -18.461  -2.529  1.00  0.00     0.002 A 
ENDBRANCH  77  78
ENDBRANCH  76  77
BRANCH  76  87
ATOM     87  C   TRP     9     -12.386 -18.757   4.951  1.00  0.00     0.275 C 
ATOM     88  O   TRP     9     -11.842 -19.387   5.853  1.00  0.00    -0.268 OA
ATOM     89  N   GLY    10     -13.700 -18.796   4.736  1.00  0.00    -0.226 NA
BRANCH  89  90
ATOM     90  CA  GLY    10     -14.651 -19.642   5.508  1.00  0.00     0.218 C 
BRANCH  90  91
ATOM     91  C   GLY    10     -15.164 -19.058   6.834  1.00  0.00     0.277 C 
ATOM     92  N   CYS    11     -14.636 -19.601   7.930  1.00  0.00    -0.228 NA
ATOM     93  O   GLY    10     -16.111 -18.280   6.848  1.00  0.00    -0.268 OA
BRANCH  92  94
ATOM     94  CA  CYS    11     -14.927 -19.220   9.331  1.00  0.00     0.198 C 
BRANCH  94  95
ATOM     95  C   CYS    11     -13.589 -19.140  10.092  1.00  0.00     0.275 C 
ATOM     96  O   CYS    11     -13.589 -18.762  11.259  1.00  0.00    -0.268 OA
ATOM     97  N   GLY    12     -12.494 -19.299   9.363  1.00  0.00    -0.225 NA
BRANCH  97  98
ATOM     98  CA  GLY    12     -11.138 -19.236   9.930  1.00  0.00     0.226 C 
BRANCH  98  99
ATOM     99  C   GLY    12     -10.486 -17.914   9.462  1.00  0.00     0.211 C 
ATOM    100  O1  GLY    12      -9.622 -17.410  10.224  1.00  0.00    -0.646 OA
ATOM    101  O2  GLY    12     -10.830 -17.457   8.356  1.00  0.00    -0.646 OA
ENDBRANCH  98  99
ENDBRANCH  97  98
ENDBRANCH  94  95
BRANCH  94 102
ATOM    102  CB  CYS    11     -15.727 -20.323  10.020  1.00  0.00     0.103 C 
ATOM    103  SG  CYS    11     -15.831 -21.923   9.129  1.00  0.00    -0.080 SA
ENDBRANCH  94 102
ENDBRANCH  92  94
ENDBRANCH  90  91
ENDBRANCH  89  90
ENDBRANCH  76  87
ENDBRANCH  74  76
ENDBRANCH  65  73
ENDBRANCH  63  65
ENDBRANCH  61  62
BRANCH  61 104
ATOM    104  CB  ASN     7      -5.345 -17.507   7.783  1.00  0.00     0.126 C 
BRANCH 104 105
ATOM    105  CG  ASN     7      -4.535 -17.000   8.991  1.00  0.00     0.276 C 
ATOM    106  ND2 ASN     7      -5.130 -17.079  10.159  1.00  0.00    -0.107 N 
ATOM    107  OD1 ASN     7      -3.469 -16.402   8.921  1.00  0.00    -0.269 OA
ENDBRANCH 104 105
ENDBRANCH  61 104
ENDBRANCH  59  61
ENDBRANCH   1  58
TORSDOF 42
ENDMDL
MODEL 2
REMARK VINA RESULT:      -5.5      3.304      8.983
REMARK WARNING: 32 MAX_TORS EXCEEDED!!!
REMARK  42 active torsions:
REMARK  status: ('A' for Active; 'I' for Inactive)
REMARK    1  A    between atoms: CA_2  and  CB_3 
REMARK    2  A    between atoms: CA_2  and  C_11 
REMARK    3  A    between atoms: CB_3  and  CG_4 
REMARK       I    between atoms: C_11  and  N_13 
REMARK    4  A    between atoms: N_13  and  CA_14 
REMARK    5  A    between atoms: CA_14  and  CB_15 
REMARK    6  A    between atoms: CA_14  and  C_19 
REMARK    7  A    between atoms: CB_15  and  CG_16 
REMARK       I    between atoms: C_19  and  N_21 
REMARK    8  A    between atoms: CA_22  and  C_26 
REMARK       I    between atoms: C_26  and  N_28 
REMARK    9  A    between atoms: N_28  and  CA_29 
REMARK   10  A    between atoms: CA_29  and  C_35 
REMARK   11  A    between atoms: CA_29  and  CB_30 
REMARK   12  A    between atoms: CB_30  and  CG_31 
REMARK   13  A    between atoms: CG_31  and  CD_32 
REMARK       I    between atoms: C_35  and  N_37 
REMARK   14  A    between atoms: N_37  and  CA_38 
REMARK   15  A    between atoms: CA_38  and  CB_39 
REMARK   16  A    between atoms: CA_38  and  C_47 
REMARK   17  A    between atoms: CB_39  and  CG_40 
REMARK       I    between atoms: C_47  and  N_49 
REMARK   18  A    between atoms: N_49  and  CA_50 
REMARK   19  A    between atoms: CA_50  and  CB_51 
REMARK   20  A    between atoms: CA_50  and  C_58 
REMARK   21  A    between atoms: CB_51  and  CG_52 
REMARK   22  A    between atoms: CG_52  and  CD_53 
REMARK   23  A    between atoms: CD_53  and  NE_54 
REMARK       I    between atoms: C_58  and  N_60 
REMARK   24  A    between atoms: N_60  and  CA_61 
REMARK   25  A    between atoms: CA_61  and  C_66 
REMARK   26  A    between atoms: CA_61  and  CB_62 
REMARK   27  A    between atoms: CB_62  and  CG_63 
REMARK       I    between atoms: C_66  and  N_68 
REMARK   28  A    between atoms: N_68  and  CA_69 
REMARK   29  A    between atoms: CA_69  and  CB_70 
REMARK   30  A    between atoms: CA_69  and  C_77 
REMARK   31  A    between atoms: CB_70  and  CG_71 
REMARK       I    between atoms: C_77  and  N_79 
REMARK   32  A    between atoms: N_79  and  CA_80 
REMARK   33  A    between atoms: CA_80  and  CB_81 
REMARK   34  A    between atoms: CA_80  and  C_91 
REMARK   35  A    between atoms: CB_81  and  CG_82 
REMARK       I    between atoms: C_91  and  N_93 
REMARK   36  A    between atoms: N_93  and  CA_94 
REMARK   37  A    between atoms: CA_94  and  C_95 
REMARK       I    between atoms: C_95  and  N_97 
REMARK   38  A    between atoms: N_97  and  CA_98 
REMARK   39  A    between atoms: CA_98  and  C_101 
REMARK   40  A    between atoms: CA_98  and  CB_99 
REMARK       I    between atoms: C_101  and  N_103 
REMARK   41  A    between atoms: N_103  and  CA_104 
REMARK   42  A    between atoms: CA_104  and  C_105 
ROOT
ATOM      1  CA  ARG     6      -7.986 -19.511   7.302  1.00  0.00     0.186 C 
ENDROOT
BRANCH   1   2
ATOM      2  N   ARG     6      -7.193 -20.049   6.172  1.00  0.00    -0.229 NA
ATOM      3  C   TYR     5      -6.560 -21.228   6.237  1.00  0.00     0.275 C 
ATOM      4  O   TYR     5      -6.620 -21.954   7.230  1.00  0.00    -0.268 OA
BRANCH   3   5
ATOM      5  CA  TYR     5      -5.834 -21.704   4.969  1.00  0.00     0.191 C 
BRANCH   5   6
ATOM      6  N   TYR     5      -4.424 -22.109   5.208  1.00  0.00    -0.228 NA
ATOM      7  C   GLU     4      -3.411 -21.230   5.279  1.00  0.00     0.274 C 
ATOM      8  O   GLU     4      -3.587 -20.019   5.292  1.00  0.00    -0.268 OA
BRANCH   7   9
ATOM      9  CA  GLU     4      -2.038 -21.811   5.674  1.00  0.00     0.187 C 
BRANCH   9  10
ATOM     10  CB  GLU     4      -1.126 -20.688   6.193  1.00  0.00     0.045 C 
BRANCH  10  11
ATOM     11  CG  GLU     4      -1.169 -20.421   7.714  1.00  0.00     0.100 C 
BRANCH  11  12
ATOM     12  CD  GLU     4      -1.339 -18.949   8.090  1.00  0.00     0.185 C 
ATOM     13  OE1 GLU     4      -2.512 -18.532   8.274  1.00  0.00    -0.647 OA
ATOM     14  OE2 GLU     4      -0.428 -18.172   7.740  1.00  0.00    -0.647 OA
ENDBRANCH  11  12
ENDBRANCH  10  11
ENDBRANCH   9  10
BRANCH   9  15
ATOM     15  N   GLU     4      -1.353 -22.497   4.561  1.00  0.00    -0.229 NA
ATOM     16  C   PRO     3      -1.417 -23.780   4.225  1.00  0.00     0.272 C 
ATOM     17  O   PRO     3      -2.341 -24.522   4.561  1.00  0.00    -0.269 OA
BRANCH  16  18
ATOM     18  CA  PRO     3      -0.579 -24.179   3.009  1.00  0.00     0.165 C 
ATOM     19  N   PRO     3      -0.133 -25.588   2.996  1.00  0.00    -0.312 N 
ATOM     20  CD  PRO     3      -0.242 -26.134   1.618  1.00  0.00     0.105 C 
ATOM     21  C   ASP     2       0.428 -26.209   4.049  1.00  0.00     0.257 C 
ATOM     22  CG  PRO     3      -0.571 -24.909   0.751  1.00  0.00     0.027 C 
ATOM     23  CB  PRO     3      -1.336 -23.988   1.697  1.00  0.00     0.034 C 
ATOM     24  O   ASP     2       0.800 -25.555   5.036  1.00  0.00    -0.270 OA
BRANCH  21  25
ATOM     25  CA  ASP     2       0.935 -27.661   3.896  1.00  0.00     0.195 C 
BRANCH  25  26
ATOM     26  CB  ASP     2       2.116 -27.878   2.915  1.00  0.00     0.132 C 
BRANCH  26  27
ATOM     27  CG  ASP     2       3.457 -27.588   3.615  1.00  0.00     0.188 C 
ATOM     28  OD2 ASP     2       4.261 -26.869   2.969  1.00  0.00    -0.647 OA
ATOM     29  OD1 ASP     2       3.883 -28.467   4.405  1.00  0.00    -0.647 OA
ENDBRANCH  26  27
ENDBRANCH  25  26
BRANCH  25  30
ATOM     30  N   ASP     2      -0.101 -28.554   3.349  1.00  0.00    -0.228 NA
ATOM     31  C   TYR     1      -1.168 -28.994   3.975  1.00  0.00     0.289 C 
ATOM     32  O   TYR     1      -1.595 -28.653   5.083  1.00  0.00    -0.268 OA
BRANCH  31  33
ATOM     33  CA  TYR     1      -1.897 -30.068   3.175  1.00  0.00     0.385 C 
ATOM     34  N   TYR     1      -1.007 -31.237   3.074  1.00  0.00     0.626 N 
BRANCH  33  35
ATOM     35  CB  TYR     1      -3.195 -30.384   3.913  1.00  0.00     0.075 C 
BRANCH  35  36
ATOM     36  CG  TYR     1      -4.449 -30.129   3.062  1.00  0.00    -0.019 A 
ATOM     37  CD2 TYR     1      -4.387 -30.097   1.677  1.00  0.00    -0.002 A 
ATOM     38  CE2 TYR     1      -5.551 -30.001   0.929  1.00  0.00     0.027 A 
ATOM     39  CZ  TYR     1      -6.778 -29.930   1.587  1.00  0.00     0.131 A 
ATOM     40  CE1 TYR     1      -6.829 -29.920   2.969  1.00  0.00     0.027 A 
ATOM     41  OH  TYR     1      -7.928 -30.024   0.890  1.00  0.00    -0.190 OA
ATOM     42  CD1 TYR     1      -5.665 -30.016   3.717  1.00  0.00    -0.002 A 
ENDBRANCH  35  36
ENDBRANCH  33  35
ENDBRANCH  31  33
ENDBRANCH  25  30
ENDBRANCH  21  25
ENDBRANCH  16  18
ENDBRANCH   9  15
ENDBRANCH   7   9
ENDBRANCH   5   6
BRANCH   5  43
ATOM     43  CB  TYR     5      -6.604 -22.851   4.293  1.00  0.00     0.060 C 
BRANCH  43  44
ATOM     44  CG  TYR     5      -6.415 -22.862   2.767  1.00  0.00    -0.020 A 
ATOM     45  CD2 TYR     5      -5.146 -22.975   2.213  1.00  0.00    -0.002 A 
ATOM     46  CE2 TYR     5      -4.985 -22.991   0.831  1.00  0.00     0.027 A 
ATOM     47  CZ  TYR     5      -6.093 -22.895   0.002  1.00  0.00     0.131 A 
ATOM     48  CE1 TYR     5      -7.367 -22.800   0.549  1.00  0.00     0.027 A 
ATOM     49  OH  TYR     5      -5.935 -22.770  -1.333  1.00  0.00    -0.190 OA
ATOM     50  CD1 TYR     5      -7.525 -22.775   1.935  1.00  0.00    -0.002 A 
ENDBRANCH  43  44
ENDBRANCH   5  43
ENDBRANCH   3   5
ENDBRANCH   1   2
BRANCH   1  51
ATOM     51  CB  ARG     6      -7.383 -18.243   7.899  1.00  0.00     0.036 C 
BRANCH  51  52
ATOM     52  CG  ARG     6      -6.307 -17.601   7.020  1.00  0.00     0.029 C 
BRANCH  52  53
ATOM     53  CD  ARG     6      -6.874 -16.391   6.283  1.00  0.00     0.145 C 
BRANCH  53  54
ATOM     54  NE  ARG     6      -7.696 -15.564   7.182  1.00  0.00    -0.083 NA
ATOM     55  CZ  ARG     6      -7.847 -14.229   7.095  1.00  0.00     0.782 C 
ATOM     56  NH2 ARG     6      -8.551 -13.565   8.014  1.00  0.00     0.063 N 
ATOM     57  NH1 ARG     6      -7.224 -13.544   6.142  1.00  0.00     0.063 N 
ENDBRANCH  53  54
ENDBRANCH  52  53
ENDBRANCH  51  52
ENDBRANCH   1  51
BRANCH   1  58
ATOM     58  C   ARG     6      -9.424 -19.164   6.897  1.00  0.00     0.274 C 
ATOM     59  N   ASN     7      -9.816 -19.624   5.712  1.00  0.00    -0.228 NA
ATOM     60  O   ARG     6     -10.120 -18.495   7.662  1.00  0.00    -0.268 OA
BRANCH  59  61
ATOM     61  CA  ASN     7     -11.193 -19.476   5.196  1.00  0.00     0.196 C 
BRANCH  61  62
ATOM     62  C   ASN     7     -11.712 -20.790   4.579  1.00  0.00     0.275 C 
ATOM     63  N   PHE     8     -11.129 -21.926   4.991  1.00  0.00    -0.228 NA
ATOM     64  O   ASN     7     -12.822 -20.769   4.085  1.00  0.00    -0.268 OA
BRANCH  63  65
ATOM     65  CA  PHE     8     -11.544 -23.289   4.581  1.00  0.00     0.191 C 
BRANCH  65  66
ATOM     66  CB  PHE     8     -13.073 -23.379   4.691  1.00  0.00     0.060 C 
BRANCH  66  67
ATOM     67  CG  PHE     8     -13.583 -23.911   6.043  1.00  0.00    -0.020 A 
ATOM     68  CD1 PHE     8     -14.892 -23.666   6.434  1.00  0.00    -0.004 A 
ATOM     69  CE1 PHE     8     -15.323 -24.059   7.701  1.00  0.00    -0.000 A 
ATOM     70  CZ  PHE     8     -14.445 -24.705   8.557  1.00  0.00    -0.000 A 
ATOM     71  CE2 PHE     8     -13.137 -24.964   8.162  1.00  0.00    -0.000 A 
ATOM     72  CD2 PHE     8     -12.706 -24.571   6.895  1.00  0.00    -0.004 A 
ENDBRANCH  66  67
ENDBRANCH  65  66
BRANCH  65  73
ATOM     73  C   PHE     8     -11.045 -23.732   3.187  1.00  0.00     0.275 C 
ATOM     74  N   TRP     9     -10.532 -24.961   3.103  1.00  0.00    -0.228 NA
ATOM     75  O   PHE     8     -10.897 -22.913   2.277  1.00  0.00    -0.268 OA
BRANCH  74  76
ATOM     76  CA  TRP     9     -10.130 -25.559   1.806  1.00  0.00     0.191 C 
BRANCH  76  77
ATOM     77  CB  TRP     9      -8.986 -26.557   2.054  1.00  0.00     0.062 C 
BRANCH  77  78
ATOM     78  CG  TRP     9      -7.813 -26.378   1.092  1.00  0.00     0.001 A 
ATOM     79  CD1 TRP     9      -7.864 -26.489  -0.232  1.00  0.00     0.095 A 
ATOM     80  NE1 TRP     9      -6.634 -26.566  -0.724  1.00  0.00    -0.244 NA
ATOM     81  CE2 TRP     9      -5.756 -26.488   0.265  1.00  0.00     0.081 A 
ATOM     82  CD2 TRP     9      -6.468 -26.380   1.449  1.00  0.00     0.015 A 
ATOM     83  CZ2 TRP     9      -4.367 -26.604   0.308  1.00  0.00     0.019 A 
ATOM     84  CE3 TRP     9      -5.817 -26.402   2.674  1.00  0.00     0.001 A 
ATOM     85  CZ3 TRP     9      -4.433 -26.531   2.720  1.00  0.00     0.000 A 
ATOM     86  CH2 TRP     9      -3.711 -26.613   1.531  1.00  0.00     0.002 A 
ENDBRANCH  77  78
ENDBRANCH  76  77
BRANCH  76  87
ATOM     87  C   TRP     9     -11.287 -26.205   1.011  1.00  0.00     0.275 C 
ATOM     88  O   TRP     9     -12.180 -25.517   0.526  1.00  0.00    -0.268 OA
ATOM     89  N   GLY    10     -11.198 -27.518   0.805  1.00  0.00    -0.226 NA
BRANCH  89  90
ATOM     90  CA  GLY    10     -12.188 -28.314   0.028  1.00  0.00     0.218 C 
BRANCH  90  91
ATOM     91  C   GLY    10     -11.768 -29.744  -0.349  1.00  0.00     0.277 C 
ATOM     92  N   CYS    11     -11.177 -29.863  -1.537  1.00  0.00    -0.228 NA
ATOM     93  O   GLY    10     -12.123 -30.699   0.333  1.00  0.00    -0.268 OA
BRANCH  92  94
ATOM     94  CA  CYS    11     -10.653 -31.109  -2.141  1.00  0.00     0.198 C 
BRANCH  94  95
ATOM     95  C   CYS    11      -9.138 -30.935  -2.358  1.00  0.00     0.275 C 
ATOM     96  O   CYS    11      -8.366 -31.733  -1.838  1.00  0.00    -0.268 OA
ATOM     97  N   GLY    12      -8.758 -29.805  -2.938  1.00  0.00    -0.225 NA
BRANCH  97  98
ATOM     98  CA  GLY    12      -7.350 -29.474  -3.204  1.00  0.00     0.226 C 
BRANCH  98  99
ATOM     99  C   GLY    12      -7.318 -28.266  -4.168  1.00  0.00     0.211 C 
ATOM    100  O1  GLY    12      -7.861 -27.207  -3.764  1.00  0.00    -0.646 OA
ATOM    101  O2  GLY    12      -6.730 -28.408  -5.256  1.00  0.00    -0.646 OA
ENDBRANCH  98  99
ENDBRANCH  97  98
ENDBRANCH  94  95
BRANCH  94 102
ATOM    102  CB  CYS    11     -11.249 -31.309  -3.533  1.00  0.00     0.103 C 
ATOM    103  SG  CYS    11     -13.008 -30.833  -3.736  1.00  0.00    -0.080 SA
ENDBRANCH  94 102
ENDBRANCH  92  94
ENDBRANCH  90  91
ENDBRANCH  89  90
ENDBRANCH  76  87
ENDBRANCH  74  76
ENDBRANCH  65  73
ENDBRANCH  63  65
ENDBRANCH  61  62
BRANCH  61 104
ATOM    104  CB  ASN     7     -11.287 -18.325   4.186  1.00  0.00     0.126 C 
BRANCH 104 105
ATOM    105  CG  ASN     7     -11.476 -16.930   4.810  1.00  0.00     0.276 C 
ATOM    106  ND2 ASN     7     -10.630 -16.005   4.420  1.00  0.00    -0.107 N 
ATOM    107  OD1 ASN     7     -12.236 -16.671   5.735  1.00  0.00    -0.269 OA
ENDBRANCH 104 105
ENDBRANCH  61 104
ENDBRANCH  59  61
ENDBRANCH   1  58
TORSDOF 42
ENDMDL
MODEL 3
REMARK VINA RESULT:      -5.4      5.842     11.907
REMARK WARNING: 32 MAX_TORS EXCEEDED!!!
REMARK  42 active torsions:
REMARK  status: ('A' for Active; 'I' for Inactive)
REMARK    1  A    between atoms: CA_2  and  CB_3 
REMARK    2  A    between atoms: CA_2  and  C_11 
REMARK    3  A    between atoms: CB_3  and  CG_4 
REMARK       I    between atoms: C_11  and  N_13 
REMARK    4  A    between atoms: N_13  and  CA_14 
REMARK    5  A    between atoms: CA_14  and  CB_15 
REMARK    6  A    between atoms: CA_14  and  C_19 
REMARK    7  A    between atoms: CB_15  and  CG_16 
REMARK       I    between atoms: C_19  and  N_21 
REMARK    8  A    between atoms: CA_22  and  C_26 
REMARK       I    between atoms: C_26  and  N_28 
REMARK    9  A    between atoms: N_28  and  CA_29 
REMARK   10  A    between atoms: CA_29  and  C_35 
REMARK   11  A    between atoms: CA_29  and  CB_30 
REMARK   12  A    between atoms: CB_30  and  CG_31 
REMARK   13  A    between atoms: CG_31  and  CD_32 
REMARK       I    between atoms: C_35  and  N_37 
REMARK   14  A    between atoms: N_37  and  CA_38 
REMARK   15  A    between atoms: CA_38  and  CB_39 
REMARK   16  A    between atoms: CA_38  and  C_47 
REMARK   17  A    between atoms: CB_39  and  CG_40 
REMARK       I    between atoms: C_47  and  N_49 
REMARK   18  A    between atoms: N_49  and  CA_50 
REMARK   19  A    between atoms: CA_50  and  CB_51 
REMARK   20  A    between atoms: CA_50  and  C_58 
REMARK   21  A    between atoms: CB_51  and  CG_52 
REMARK   22  A    between atoms: CG_52  and  CD_53 
REMARK   23  A    between atoms: CD_53  and  NE_54 
REMARK       I    between atoms: C_58  and  N_60 
REMARK   24  A    between atoms: N_60  and  CA_61 
REMARK   25  A    between atoms: CA_61  and  C_66 
REMARK   26  A    between atoms: CA_61  and  CB_62 
REMARK   27  A    between atoms: CB_62  and  CG_63 
REMARK       I    between atoms: C_66  and  N_68 
REMARK   28  A    between atoms: N_68  and  CA_69 
REMARK   29  A    between atoms: CA_69  and  CB_70 
REMARK   30  A    between atoms: CA_69  and  C_77 
REMARK   31  A    between atoms: CB_70  and  CG_71 
REMARK       I    between atoms: C_77  and  N_79 
REMARK   32  A    between atoms: N_79  and  CA_80 
REMARK   33  A    between atoms: CA_80  and  CB_81 
REMARK   34  A    between atoms: CA_80  and  C_91 
REMARK   35  A    between atoms: CB_81  and  CG_82 
REMARK       I    between atoms: C_91  and  N_93 
REMARK   36  A    between atoms: N_93  and  CA_94 
REMARK   37  A    between atoms: CA_94  and  C_95 
REMARK       I    between atoms: C_95  and  N_97 
REMARK   38  A    between atoms: N_97  and  CA_98 
REMARK   39  A    between atoms: CA_98  and  C_101 
REMARK   40  A    between atoms: CA_98  and  CB_99 
REMARK       I    between atoms: C_101  and  N_103 
REMARK   41  A    between atoms: N_103  and  CA_104 
REMARK   42  A    between atoms: CA_104  and  C_105 
ROOT
ATOM      1  CA  ARG     6      -2.445 -26.681   3.943  1.00  0.00     0.186 C 
ENDROOT
BRANCH   1   2
ATOM      2  N   ARG     6      -2.588 -25.886   2.701  1.00  0.00    -0.229 NA
ATOM      3  C   TYR     5      -3.782 -25.605   2.162  1.00  0.00     0.275 C 
ATOM      4  O   TYR     5      -4.840 -25.964   2.681  1.00  0.00    -0.268 OA
BRANCH   3   5
ATOM      5  CA  TYR     5      -3.793 -24.708   0.914  1.00  0.00     0.191 C 
BRANCH   5   6
ATOM      6  N   TYR     5      -4.988 -24.906   0.053  1.00  0.00    -0.228 NA
ATOM      7  C   GLU     4      -4.984 -25.687  -1.040  1.00  0.00     0.274 C 
ATOM      8  O   GLU     4      -4.039 -26.407  -1.334  1.00  0.00    -0.268 OA
BRANCH   7   9
ATOM      9  CA  GLU     4      -6.347 -25.888  -1.733  1.00  0.00     0.187 C 
BRANCH   9  10
ATOM     10  CB  GLU     4      -7.454 -25.198  -0.918  1.00  0.00     0.045 C 
BRANCH  10  11
ATOM     11  CG  GLU     4      -8.222 -24.065  -1.633  1.00  0.00     0.100 C 
BRANCH  11  12
ATOM     12  CD  GLU     4      -7.590 -22.681  -1.479  1.00  0.00     0.185 C 
ATOM     13  OE1 GLU     4      -8.321 -21.759  -1.033  1.00  0.00    -0.647 OA
ATOM     14  OE2 GLU     4      -6.608 -22.430  -2.206  1.00  0.00    -0.647 OA
ENDBRANCH  11  12
ENDBRANCH  10  11
ENDBRANCH   9  10
BRANCH   9  15
ATOM     15  N   GLU     4      -6.708 -27.308  -1.907  1.00  0.00    -0.229 NA
ATOM     16  C   PRO     3      -6.380 -28.121  -2.906  1.00  0.00     0.272 C 
ATOM     17  O   PRO     3      -5.421 -27.922  -3.652  1.00  0.00    -0.269 OA
BRANCH  16  18
ATOM     18  CA  PRO     3      -6.918 -29.548  -2.789  1.00  0.00     0.165 C 
ATOM     19  N   PRO     3      -7.202 -29.995  -1.408  1.00  0.00    -0.312 N 
ATOM     20  CD  PRO     3      -8.462 -30.781  -1.387  1.00  0.00     0.105 C 
ATOM     21  C   ASP     2      -6.352 -29.836  -0.378  1.00  0.00     0.257 C 
ATOM     22  CG  PRO     3      -8.815 -30.973  -2.870  1.00  0.00     0.027 C 
ATOM     23  CB  PRO     3      -8.231 -29.735  -3.545  1.00  0.00     0.034 C 
ATOM     24  O   ASP     2      -5.178 -29.490  -0.581  1.00  0.00    -0.270 OA
BRANCH  21  25
ATOM     25  CA  ASP     2      -6.717 -30.420   1.006  1.00  0.00     0.195 C 
BRANCH  25  26
ATOM     26  CB  ASP     2      -7.624 -29.542   1.907  1.00  0.00     0.132 C 
BRANCH  26  27
ATOM     27  CG  ASP     2      -7.856 -28.165   1.257  1.00  0.00     0.188 C 
ATOM     28  OD2 ASP     2      -7.230 -27.208   1.778  1.00  0.00    -0.647 OA
ATOM     29  OD1 ASP     2      -8.977 -27.976   0.721  1.00  0.00    -0.647 OA
ENDBRANCH  26  27
ENDBRANCH  25  26
BRANCH  25  30
ATOM     30  N   ASP     2      -5.528 -30.622   1.852  1.00  0.00    -0.228 NA
ATOM     31  C   TYR     1      -5.213 -31.711   2.514  1.00  0.00     0.289 C 
ATOM     32  O   TYR     1      -5.758 -32.819   2.461  1.00  0.00    -0.268 OA
BRANCH  31  33
ATOM     33  CA  TYR     1      -4.032 -31.487   3.454  1.00  0.00     0.385 C 
ATOM     34  N   TYR     1      -3.346 -30.255   3.029  1.00  0.00     0.626 N 
BRANCH  33  35
ATOM     35  CB  TYR     1      -4.591 -31.385   4.871  1.00  0.00     0.075 C 
BRANCH  35  36
ATOM     36  CG  TYR     1      -3.687 -30.578   5.817  1.00  0.00    -0.019 A 
ATOM     37  CD2 TYR     1      -2.353 -30.908   5.997  1.00  0.00    -0.002 A 
ATOM     38  CE2 TYR     1      -1.527 -30.086   6.748  1.00  0.00     0.027 A 
ATOM     39  CZ  TYR     1      -2.057 -28.932   7.323  1.00  0.00     0.131 A 
ATOM     40  CE1 TYR     1      -3.398 -28.630   7.173  1.00  0.00     0.027 A 
ATOM     41  OH  TYR     1      -1.241 -28.024   7.897  1.00  0.00    -0.190 OA
ATOM     42  CD1 TYR     1      -4.225 -29.452   6.422  1.00  0.00    -0.002 A 
ENDBRANCH  35  36
ENDBRANCH  33  35
ENDBRANCH  31  33
ENDBRANCH  25  30
ENDBRANCH  21  25
ENDBRANCH  16  18
ENDBRANCH   9  15
ENDBRANCH   7   9
ENDBRANCH   5   6
BRANCH   5  43
ATOM     43  CB  TYR     5      -3.662 -23.225   1.301  1.00  0.00     0.060 C 
BRANCH  43  44
ATOM     44  CG  TYR     5      -4.705 -22.801   2.348  1.00  0.00    -0.020 A 
ATOM     45  CD2 TYR     5      -4.325 -22.540   3.659  1.00  0.00    -0.002 A 
ATOM     46  CE2 TYR     5      -5.275 -22.149   4.597  1.00  0.00     0.027 A 
ATOM     47  CZ  TYR     5      -6.605 -22.019   4.226  1.00  0.00     0.131 A 
ATOM     48  CE1 TYR     5      -6.990 -22.261   2.912  1.00  0.00     0.027 A 
ATOM     49  OH  TYR     5      -7.551 -21.777   5.158  1.00  0.00    -0.190 OA
ATOM     50  CD1 TYR     5      -6.037 -22.662   1.975  1.00  0.00    -0.002 A 
ENDBRANCH  43  44
ENDBRANCH   5  43
ENDBRANCH   3   5
ENDBRANCH   1   2
BRANCH   1  51
ATOM     51  CB  ARG     6      -1.193 -27.553   3.949  1.00  0.00     0.036 C 
BRANCH  51  52
ATOM     52  CG  ARG     6      -0.663 -27.876   2.550  1.00  0.00     0.029 C 
BRANCH  52  53
ATOM     53  CD  ARG     6       0.805 -28.287   2.620  1.00  0.00     0.145 C 
BRANCH  53  54
ATOM     54  NE  ARG     6       1.001 -29.641   2.077  1.00  0.00    -0.083 NA
ATOM     55  CZ  ARG     6       1.937 -29.994   1.176  1.00  0.00     0.782 C 
ATOM     56  NH2 ARG     6       1.974 -31.235   0.686  1.00  0.00     0.063 N 
ATOM     57  NH1 ARG     6       2.784 -29.088   0.698  1.00  0.00     0.063 N 
ENDBRANCH  53  54
ENDBRANCH  52  53
ENDBRANCH  51  52
ENDBRANCH   1  51
BRANCH   1  58
ATOM     58  C   ARG     6      -2.373 -25.802   5.198  1.00  0.00     0.274 C 
ATOM     59  N   ASN     7      -1.152 -25.433   5.574  1.00  0.00    -0.228 NA
ATOM     60  O   ARG     6      -3.415 -25.495   5.778  1.00  0.00    -0.268 OA
BRANCH  59  61
ATOM     61  CA  ASN     7      -0.890 -24.509   6.697  1.00  0.00     0.196 C 
BRANCH  61  62
ATOM     62  C   ASN     7      -1.322 -23.068   6.358  1.00  0.00     0.275 C 
ATOM     63  N   PHE     8      -1.849 -22.342   7.356  1.00  0.00    -0.228 NA
ATOM     64  O   ASN     7      -0.827 -22.559   5.372  1.00  0.00    -0.268 OA
BRANCH  63  65
ATOM     65  CA  PHE     8      -2.244 -20.916   7.250  1.00  0.00     0.191 C 
BRANCH  65  66
ATOM     66  CB  PHE     8      -3.375 -20.655   8.254  1.00  0.00     0.060 C 
BRANCH  66  67
ATOM     67  CG  PHE     8      -4.203 -19.389   7.965  1.00  0.00    -0.020 A 
ATOM     68  CD1 PHE     8      -4.209 -18.342   8.876  1.00  0.00    -0.004 A 
ATOM     69  CE1 PHE     8      -5.038 -17.241   8.663  1.00  0.00    -0.000 A 
ATOM     70  CZ  PHE     8      -5.839 -17.191   7.533  1.00  0.00    -0.000 A 
ATOM     71  CE2 PHE     8      -5.825 -18.233   6.612  1.00  0.00    -0.000 A 
ATOM     72  CD2 PHE     8      -4.996 -19.335   6.825  1.00  0.00    -0.004 A 
ENDBRANCH  66  67
ENDBRANCH  65  66
BRANCH  65  73
ATOM     73  C   PHE     8      -1.088 -19.905   7.416  1.00  0.00     0.275 C 
ATOM     74  N   TRP     9      -0.505 -19.861   8.615  1.00  0.00    -0.228 NA
ATOM     75  O   PHE     8      -0.891 -19.024   6.576  1.00  0.00    -0.268 OA
BRANCH  74  76
ATOM     76  CA  TRP     9       0.694 -19.028   8.879  1.00  0.00     0.191 C 
BRANCH  76  77
ATOM     77  CB  TRP     9       0.325 -17.935   9.895  1.00  0.00     0.062 C 
BRANCH  77  78
ATOM     78  CG  TRP     9      -0.462 -16.779   9.277  1.00  0.00     0.001 A 
ATOM     79  CD1 TRP     9      -0.076 -16.036   8.244  1.00  0.00     0.095 A 
ATOM     80  NE1 TRP     9      -0.840 -14.954   8.160  1.00  0.00    -0.244 NA
ATOM     81  CE2 TRP     9      -1.751 -14.980   9.121  1.00  0.00     0.081 A 
ATOM     82  CD2 TRP     9      -1.537 -16.126   9.871  1.00  0.00     0.015 A 
ATOM     83  CZ2 TRP     9      -2.722 -14.065   9.529  1.00  0.00     0.019 A 
ATOM     84  CE3 TRP     9      -2.265 -16.365  11.027  1.00  0.00     0.001 A 
ATOM     85  CZ3 TRP     9      -3.225 -15.448  11.443  1.00  0.00     0.000 A 
ATOM     86  CH2 TRP     9      -3.461 -14.308  10.678  1.00  0.00     0.002 A 
ENDBRANCH  77  78
ENDBRANCH  76  77
BRANCH  76  87
ATOM     87  C   TRP     9       1.942 -19.823   9.325  1.00  0.00     0.275 C 
ATOM     88  O   TRP     9       1.861 -21.013   9.614  1.00  0.00    -0.268 OA
ATOM     89  N   GLY    10       3.103 -19.171   9.277  1.00  0.00    -0.226 NA
BRANCH  89  90
ATOM     90  CA  GLY    10       4.418 -19.774   9.624  1.00  0.00     0.218 C 
BRANCH  90  91
ATOM     91  C   GLY    10       5.593 -18.798   9.798  1.00  0.00     0.277 C 
ATOM     92  N   CYS    11       6.002 -18.204   8.678  1.00  0.00    -0.228 NA
ATOM     93  O   GLY    10       6.194 -18.729  10.864  1.00  0.00    -0.268 OA
BRANCH  92  94
ATOM     94  CA  CYS    11       7.089 -17.207   8.555  1.00  0.00     0.198 C 
BRANCH  94  95
ATOM     95  C   CYS    11       6.793 -16.326   7.326  1.00  0.00     0.275 C 
ATOM     96  O   CYS    11       7.323 -15.223   7.242  1.00  0.00    -0.268 OA
ATOM     97  N   GLY    12       5.819 -16.744   6.530  1.00  0.00    -0.225 NA
BRANCH  97  98
ATOM     98  CA  GLY    12       5.399 -16.013   5.325  1.00  0.00     0.226 C 
BRANCH  98  99
ATOM     99  C   GLY    12       3.933 -15.565   5.525  1.00  0.00     0.211 C 
ATOM    100  O1  GLY    12       3.461 -14.779   4.665  1.00  0.00    -0.646 OA
ATOM    101  O2  GLY    12       3.309 -16.036   6.494  1.00  0.00    -0.646 OA
ENDBRANCH  98  99
ENDBRANCH  97  98
ENDBRANCH  94  95
BRANCH  94 102
ATOM    102  CB  CYS    11       8.412 -17.908   8.250  1.00  0.00     0.103 C 
ATOM    103  SG  CYS    11       9.616 -17.996   9.631  1.00  0.00    -0.080 SA
ENDBRANCH  94 102
ENDBRANCH  92  94
ENDBRANCH  90  91
ENDBRANCH  89  90
ENDBRANCH  76  87
ENDBRANCH  74  76
ENDBRANCH  65  73
ENDBRANCH  63  65
ENDBRANCH  61  62
BRANCH  61 104
ATOM    104  CB  ASN     7       0.584 -24.550   7.120  1.00  0.00     0.126 C 
BRANCH 104 105
ATOM    105  CG  ASN     7       1.514 -25.304   6.151  1.00  0.00     0.276 C 
ATOM    106  ND2 ASN     7       1.775 -26.554   6.458  1.00  0.00    -0.107 N 
ATOM    107  OD1 ASN     7       2.135 -24.789   5.230  1.00  0.00    -0.269 OA
ENDBRANCH 104 105
ENDBRANCH  61 104
ENDBRANCH  59  61
ENDBRANCH   1  58
TORSDOF 42
ENDMDL
MODEL 4
REMARK VINA RESULT:      -5.4      3.715      8.387
REMARK WARNING: 32 MAX_TORS EXCEEDED!!!
REMARK  42 active torsions:
REMARK  status: ('A' for Active; 'I' for Inactive)
REMARK    1  A    between atoms: CA_2  and  CB_3 
REMARK    2  A    between atoms: CA_2  and  C_11 
REMARK    3  A    between atoms: CB_3  and  CG_4 
REMARK       I    between atoms: C_11  and  N_13 
REMARK    4  A    between atoms: N_13  and  CA_14 
REMARK    5  A    between atoms: CA_14  and  CB_15 
REMARK    6  A    between atoms: CA_14  and  C_19 
REMARK    7  A    between atoms: CB_15  and  CG_16 
REMARK       I    between atoms: C_19  and  N_21 
REMARK    8  A    between atoms: CA_22  and  C_26 
REMARK       I    between atoms: C_26  and  N_28 
REMARK    9  A    between atoms: N_28  and  CA_29 
REMARK   10  A    between atoms: CA_29  and  C_35 
REMARK   11  A    between atoms: CA_29  and  CB_30 
REMARK   12  A    between atoms: CB_30  and  CG_31 
REMARK   13  A    between atoms: CG_31  and  CD_32 
REMARK       I    between atoms: C_35  and  N_37 
REMARK   14  A    between atoms: N_37  and  CA_38 
REMARK   15  A    between atoms: CA_38  and  CB_39 
REMARK   16  A    between atoms: CA_38  and  C_47 
REMARK   17  A    between atoms: CB_39  and  CG_40 
REMARK       I    between atoms: C_47  and  N_49 
REMARK   18  A    between atoms: N_49  and  CA_50 
REMARK   19  A    between atoms: CA_50  and  CB_51 
REMARK   20  A    between atoms: CA_50  and  C_58 
REMARK   21  A    between atoms: CB_51  and  CG_52 
REMARK   22  A    between atoms: CG_52  and  CD_53 
REMARK   23  A    between atoms: CD_53  and  NE_54 
REMARK       I    between atoms: C_58  and  N_60 
REMARK   24  A    between atoms: N_60  and  CA_61 
REMARK   25  A    between atoms: CA_61  and  C_66 
REMARK   26  A    between atoms: CA_61  and  CB_62 
REMARK   27  A    between atoms: CB_62  and  CG_63 
REMARK       I    between atoms: C_66  and  N_68 
REMARK   28  A    between atoms: N_68  and  CA_69 
REMARK   29  A    between atoms: CA_69  and  CB_70 
REMARK   30  A    between atoms: CA_69  and  C_77 
REMARK   31  A    between atoms: CB_70  and  CG_71 
REMARK       I    between atoms: C_77  and  N_79 
REMARK   32  A    between atoms: N_79  and  CA_80 
REMARK   33  A    between atoms: CA_80  and  CB_81 
REMARK   34  A    between atoms: CA_80  and  C_91 
REMARK   35  A    between atoms: CB_81  and  CG_82 
REMARK       I    between atoms: C_91  and  N_93 
REMARK   36  A    between atoms: N_93  and  CA_94 
REMARK   37  A    between atoms: CA_94  and  C_95 
REMARK       I    between atoms: C_95  and  N_97 
REMARK   38  A    between atoms: N_97  and  CA_98 
REMARK   39  A    between atoms: CA_98  and  C_101 
REMARK   40  A    between atoms: CA_98  and  CB_99 
REMARK       I    between atoms: C_101  and  N_103 
REMARK   41  A    between atoms: N_103  and  CA_104 
REMARK   42  A    between atoms: CA_104  and  C_105 
ROOT
ATOM      1  CA  ARG     6      -5.289 -21.417   6.875  1.00  0.00     0.186 C 
ENDROOT
BRANCH   1   2
ATOM      2  N   ARG     6      -4.511 -22.128   5.833  1.00  0.00    -0.229 NA
ATOM      3  C   TYR     5      -3.174 -22.070   5.771  1.00  0.00     0.275 C 
ATOM      4  O   TYR     5      -2.503 -21.446   6.593  1.00  0.00    -0.268 OA
BRANCH   3   5
ATOM      5  CA  TYR     5      -2.486 -22.914   4.686  1.00  0.00     0.191 C 
BRANCH   5   6
ATOM      6  N   TYR     5      -2.082 -24.265   5.153  1.00  0.00    -0.228 NA
ATOM      7  C   GLU     4      -0.819 -24.579   5.486  1.00  0.00     0.274 C 
ATOM      8  O   GLU     4       0.071 -23.741   5.565  1.00  0.00    -0.268 OA
BRANCH   7   9
ATOM      9  CA  GLU     4      -0.606 -25.985   6.083  1.00  0.00     0.187 C 
BRANCH   9  10
ATOM     10  CB  GLU     4       0.248 -26.834   5.127  1.00  0.00     0.045 C 
BRANCH  10  11
ATOM     11  CG  GLU     4      -0.221 -26.885   3.656  1.00  0.00     0.100 C 
BRANCH  11  12
ATOM     12  CD  GLU     4       0.822 -27.433   2.682  1.00  0.00     0.185 C 
ATOM     13  OE1 GLU     4       0.403 -28.105   1.704  1.00  0.00    -0.647 OA
ATOM     14  OE2 GLU     4       1.974 -27.601   3.130  1.00  0.00    -0.647 OA
ENDBRANCH  11  12
ENDBRANCH  10  11
ENDBRANCH   9  10
BRANCH   9  15
ATOM     15  N   GLU     4      -1.868 -26.701   6.350  1.00  0.00    -0.229 NA
ATOM     16  C   PRO     3      -2.029 -27.963   6.731  1.00  0.00     0.272 C 
ATOM     17  O   PRO     3      -1.144 -28.623   7.278  1.00  0.00    -0.269 OA
BRANCH  16  18
ATOM     18  CA  PRO     3      -3.481 -28.406   6.924  1.00  0.00     0.165 C 
ATOM     19  N   PRO     3      -4.077 -29.104   5.764  1.00  0.00    -0.312 N 
ATOM     20  CD  PRO     3      -4.909 -30.239   6.238  1.00  0.00     0.105 C 
ATOM     21  C   ASP     2      -3.991 -28.662   4.496  1.00  0.00     0.257 C 
ATOM     22  CG  PRO     3      -4.962 -30.060   7.763  1.00  0.00     0.027 C 
ATOM     23  CB  PRO     3      -3.641 -29.373   8.095  1.00  0.00     0.034 C 
ATOM     24  O   ASP     2      -3.581 -27.515   4.259  1.00  0.00    -0.270 OA
BRANCH  21  25
ATOM     25  CA  ASP     2      -4.726 -29.427   3.373  1.00  0.00     0.195 C 
BRANCH  25  26
ATOM     26  CB  ASP     2      -3.846 -29.971   2.218  1.00  0.00     0.132 C 
BRANCH  26  27
ATOM     27  CG  ASP     2      -2.767 -30.924   2.767  1.00  0.00     0.188 C 
ATOM     28  OD2 ASP     2      -3.194 -31.878   3.466  1.00  0.00    -0.647 OA
ATOM     29  OD1 ASP     2      -1.636 -30.426   2.992  1.00  0.00    -0.647 OA
ENDBRANCH  26  27
ENDBRANCH  25  26
BRANCH  25  30
ATOM     30  N   ASP     2      -5.692 -28.572   2.661  1.00  0.00    -0.228 NA
ATOM     31  C   TYR     1      -6.766 -28.969   2.018  1.00  0.00     0.289 C 
ATOM     32  O   TYR     1      -7.261 -30.100   1.988  1.00  0.00    -0.268 OA
BRANCH  31  33
ATOM     33  CA  TYR     1      -7.404 -27.836   1.220  1.00  0.00     0.385 C 
ATOM     34  N   TYR     1      -8.322 -27.114   2.118  1.00  0.00     0.626 N 
BRANCH  33  35
ATOM     35  CB  TYR     1      -6.274 -26.949   0.704  1.00  0.00     0.075 C 
BRANCH  35  36
ATOM     36  CG  TYR     1      -6.455 -26.538  -0.766  1.00  0.00    -0.019 A 
ATOM     37  CD2 TYR     1      -5.413 -26.630  -1.675  1.00  0.00    -0.002 A 
ATOM     38  CE2 TYR     1      -5.638 -26.383  -3.021  1.00  0.00     0.027 A 
ATOM     39  CZ  TYR     1      -6.921 -26.037  -3.444  1.00  0.00     0.131 A 
ATOM     40  CE1 TYR     1      -7.947 -25.908  -2.525  1.00  0.00     0.027 A 
ATOM     41  OH  TYR     1      -7.208 -25.976  -4.760  1.00  0.00    -0.190 OA
ATOM     42  CD1 TYR     1      -7.722 -26.154  -1.179  1.00  0.00    -0.002 A 
ENDBRANCH  35  36
ENDBRANCH  33  35
ENDBRANCH  31  33
ENDBRANCH  25  30
ENDBRANCH  21  25
ENDBRANCH  16  18
ENDBRANCH   9  15
ENDBRANCH   7   9
ENDBRANCH   5   6
BRANCH   5  43
ATOM     43  CB  TYR     5      -3.375 -23.031   3.436  1.00  0.00     0.060 C 
BRANCH  43  44
ATOM     44  CG  TYR     5      -2.729 -23.894   2.339  1.00  0.00    -0.020 A 
ATOM     45  CD2 TYR     5      -1.485 -23.560   1.818  1.00  0.00    -0.002 A 
ATOM     46  CE2 TYR     5      -0.905 -24.350   0.831  1.00  0.00     0.027 A 
ATOM     47  CZ  TYR     5      -1.567 -25.475   0.364  1.00  0.00     0.131 A 
ATOM     48  CE1 TYR     5      -2.805 -25.826   0.893  1.00  0.00     0.027 A 
ATOM     49  OH  TYR     5      -1.078 -26.166  -0.688  1.00  0.00    -0.190 OA
ATOM     50  CD1 TYR     5      -3.388 -25.027   1.876  1.00  0.00    -0.002 A 
ENDBRANCH  43  44
ENDBRANCH   5  43
ENDBRANCH   3   5
ENDBRANCH   1   2
BRANCH   1  51
ATOM     51  CB  ARG     6      -6.021 -20.192   6.337  1.00  0.00     0.036 C 
BRANCH  51  52
ATOM     52  CG  ARG     6      -5.206 -18.900   6.428  1.00  0.00     0.029 C 
BRANCH  52  53
ATOM     53  CD  ARG     6      -4.538 -18.787   7.795  1.00  0.00     0.145 C 
BRANCH  53  54
ATOM     54  NE  ARG     6      -4.517 -17.390   8.259  1.00  0.00    -0.083 NA
ATOM     55  CZ  ARG     6      -5.400 -16.835   9.110  1.00  0.00     0.782 C 
ATOM     56  NH2 ARG     6      -5.338 -15.534   9.399  1.00  0.00     0.063 N 
ATOM     57  NH1 ARG     6      -6.399 -17.558   9.605  1.00  0.00     0.063 N 
ENDBRANCH  53  54
ENDBRANCH  52  53
ENDBRANCH  51  52
ENDBRANCH   1  51
BRANCH   1  58
ATOM     58  C   ARG     6      -6.351 -22.312   7.527  1.00  0.00     0.274 C 
ATOM     59  N   ASN     7      -7.614 -21.938   7.340  1.00  0.00    -0.228 NA
ATOM     60  O   ARG     6      -5.992 -23.298   8.173  1.00  0.00    -0.268 OA
BRANCH  59  61
ATOM     61  CA  ASN     7      -8.774 -22.726   7.807  1.00  0.00     0.196 C 
BRANCH  61  62
ATOM     62  C   ASN     7      -9.421 -23.518   6.655  1.00  0.00     0.275 C 
ATOM     63  N   PHE     8     -10.753 -23.426   6.527  1.00  0.00    -0.228 NA
ATOM     64  O   ASN     7      -8.699 -23.845   5.733  1.00  0.00    -0.268 OA
BRANCH  63  65
ATOM     65  CA  PHE     8     -11.546 -24.042   5.435  1.00  0.00     0.191 C 
BRANCH  65  66
ATOM     66  CB  PHE     8     -12.871 -24.542   6.027  1.00  0.00     0.060 C 
BRANCH  66  67
ATOM     67  CG  PHE     8     -13.128 -24.098   7.479  1.00  0.00    -0.020 A 
ATOM     68  CD1 PHE     8     -12.758 -24.924   8.531  1.00  0.00    -0.004 A 
ATOM     69  CE1 PHE     8     -13.083 -24.567   9.840  1.00  0.00    -0.000 A 
ATOM     70  CZ  PHE     8     -13.759 -23.383  10.083  1.00  0.00    -0.000 A 
ATOM     71  CE2 PHE     8     -14.119 -22.547   9.031  1.00  0.00    -0.000 A 
ATOM     72  CD2 PHE     8     -13.794 -22.903   7.722  1.00  0.00    -0.004 A 
ENDBRANCH  66  67
ENDBRANCH  65  66
BRANCH  65  73
ATOM     73  C   PHE     8     -11.775 -23.137   4.204  1.00  0.00     0.275 C 
ATOM     74  N   TRP     9     -10.979 -23.350   3.155  1.00  0.00    -0.228 NA
ATOM     75  O   PHE     8     -12.472 -22.122   4.284  1.00  0.00    -0.268 OA
BRANCH  74  76
ATOM     76  CA  TRP     9     -11.169 -22.640   1.866  1.00  0.00     0.191 C 
BRANCH  76  77
ATOM     77  CB  TRP     9     -10.007 -21.653   1.667  1.00  0.00     0.062 C 
BRANCH  77  78
ATOM     78  CG  TRP     9      -8.645 -22.340   1.566  1.00  0.00     0.001 A 
ATOM     79  CD1 TRP     9      -7.818 -22.586   2.577  1.00  0.00     0.095 A 
ATOM     80  NE1 TRP     9      -6.621 -22.916   2.107  1.00  0.00    -0.244 NA
ATOM     81  CE2 TRP     9      -6.648 -22.910   0.783  1.00  0.00     0.081 A 
ATOM     82  CD2 TRP     9      -7.924 -22.533   0.392  1.00  0.00     0.015 A 
ATOM     83  CZ2 TRP     9      -5.661 -23.093  -0.185  1.00  0.00     0.019 A 
ATOM     84  CE3 TRP     9      -8.223 -22.320  -0.946  1.00  0.00     0.001 A 
ATOM     85  CZ3 TRP     9      -7.236 -22.488  -1.911  1.00  0.00     0.000 A 
ATOM     86  CH2 TRP     9      -5.960 -22.894  -1.525  1.00  0.00     0.002 A 
ENDBRANCH  77  78
ENDBRANCH  76  77
BRANCH  76  87
ATOM     87  C   TRP     9     -11.344 -23.568   0.642  1.00  0.00     0.275 C 
ATOM     88  O   TRP     9     -11.585 -23.106  -0.469  1.00  0.00    -0.268 OA
ATOM     89  N   GLY    10     -11.120 -24.864   0.850  1.00  0.00    -0.226 NA
BRANCH  89  90
ATOM     90  CA  GLY    10     -11.195 -25.909  -0.208  1.00  0.00     0.218 C 
BRANCH  90  91
ATOM     91  C   GLY    10     -11.757 -27.275   0.220  1.00  0.00     0.277 C 
ATOM     92  N   CYS    11     -11.336 -28.309  -0.507  1.00  0.00    -0.228 NA
ATOM     93  O   GLY    10     -12.652 -27.347   1.054  1.00  0.00    -0.268 OA
BRANCH  92  94
ATOM     94  CA  CYS    11     -11.694 -29.731  -0.306  1.00  0.00     0.198 C 
BRANCH  94  95
ATOM     95  C   CYS    11     -10.611 -30.596  -0.980  1.00  0.00     0.275 C 
ATOM     96  O   CYS    11     -10.924 -31.688  -1.444  1.00  0.00    -0.268 OA
ATOM     97  N   GLY    12      -9.361 -30.182  -0.835  1.00  0.00    -0.225 NA
BRANCH  97  98
ATOM     98  CA  GLY    12      -8.208 -30.899  -1.400  1.00  0.00     0.226 C 
BRANCH  98  99
ATOM     99  C   GLY    12      -7.874 -30.262  -2.769  1.00  0.00     0.211 C 
ATOM    100  O1  GLY    12      -8.430 -29.165  -3.032  1.00  0.00    -0.646 OA
ATOM    101  O2  GLY    12      -7.056 -30.852  -3.500  1.00  0.00    -0.646 OA
ENDBRANCH  98  99
ENDBRANCH  97  98
ENDBRANCH  94  95
BRANCH  94 102
ATOM    102  CB  CYS    11     -12.995 -30.054  -1.039  1.00  0.00     0.103 C 
ATOM    103  SG  CYS    11     -14.291 -30.895  -0.051  1.00  0.00    -0.080 SA
ENDBRANCH  94 102
ENDBRANCH  92  94
ENDBRANCH  90  91
ENDBRANCH  89  90
ENDBRANCH  76  87
ENDBRANCH  74  76
ENDBRANCH  65  73
ENDBRANCH  63  65
ENDBRANCH  61  62
BRANCH  61 104
ATOM    104  CB  ASN     7      -9.808 -21.833   8.504  1.00  0.00     0.126 C 
BRANCH 104 105
ATOM    105  CG  ASN     7      -9.214 -20.691   9.349  1.00  0.00     0.276 C 
ATOM    106  ND2 ASN     7      -9.338 -19.482   8.853  1.00  0.00    -0.107 N 
ATOM    107  OD1 ASN     7      -8.516 -20.844  10.344  1.00  0.00    -0.269 OA
ENDBRANCH 104 105
ENDBRANCH  61 104
ENDBRANCH  59  61
ENDBRANCH   1  58
TORSDOF 42
ENDMDL
MODEL 5
REMARK VINA RESULT:      -5.3      3.371      7.755
REMARK WARNING: 32 MAX_TORS EXCEEDED!!!
REMARK  42 active torsions:
REMARK  status: ('A' for Active; 'I' for Inactive)
REMARK    1  A    between atoms: CA_2  and  CB_3 
REMARK    2  A    between atoms: CA_2  and  C_11 
REMARK    3  A    between atoms: CB_3  and  CG_4 
REMARK       I    between atoms: C_11  and  N_13 
REMARK    4  A    between atoms: N_13  and  CA_14 
REMARK    5  A    between atoms: CA_14  and  CB_15 
REMARK    6  A    between atoms: CA_14  and  C_19 
REMARK    7  A    between atoms: CB_15  and  CG_16 
REMARK       I    between atoms: C_19  and  N_21 
REMARK    8  A    between atoms: CA_22  and  C_26 
REMARK       I    between atoms: C_26  and  N_28 
REMARK    9  A    between atoms: N_28  and  CA_29 
REMARK   10  A    between atoms: CA_29  and  C_35 
REMARK   11  A    between atoms: CA_29  and  CB_30 
REMARK   12  A    between atoms: CB_30  and  CG_31 
REMARK   13  A    between atoms: CG_31  and  CD_32 
REMARK       I    between atoms: C_35  and  N_37 
REMARK   14  A    between atoms: N_37  and  CA_38 
REMARK   15  A    between atoms: CA_38  and  CB_39 
REMARK   16  A    between atoms: CA_38  and  C_47 
REMARK   17  A    between atoms: CB_39  and  CG_40 
REMARK       I    between atoms: C_47  and  N_49 
REMARK   18  A    between atoms: N_49  and  CA_50 
REMARK   19  A    between atoms: CA_50  and  CB_51 
REMARK   20  A    between atoms: CA_50  and  C_58 
REMARK   21  A    between atoms: CB_51  and  CG_52 
REMARK   22  A    between atoms: CG_52  and  CD_53 
REMARK   23  A    between atoms: CD_53  and  NE_54 
REMARK       I    between atoms: C_58  and  N_60 
REMARK   24  A    between atoms: N_60  and  CA_61 
REMARK   25  A    between atoms: CA_61  and  C_66 
REMARK   26  A    between atoms: CA_61  and  CB_62 
REMARK   27  A    between atoms: CB_62  and  CG_63 
REMARK       I    between atoms: C_66  and  N_68 
REMARK   28  A    between atoms: N_68  and  CA_69 
REMARK   29  A    between atoms: CA_69  and  CB_70 
REMARK   30  A    between atoms: CA_69  and  C_77 
REMARK   31  A    between atoms: CB_70  and  CG_71 
REMARK       I    between atoms: C_77  and  N_79 
REMARK   32  A    between atoms: N_79  and  CA_80 
REMARK   33  A    between atoms: CA_80  and  CB_81 
REMARK   34  A    between atoms: CA_80  and  C_91 
REMARK   35  A    between atoms: CB_81  and  CG_82 
REMARK       I    between atoms: C_91  and  N_93 
REMARK   36  A    between atoms: N_93  and  CA_94 
REMARK   37  A    between atoms: CA_94  and  C_95 
REMARK       I    between atoms: C_95  and  N_97 
REMARK   38  A    between atoms: N_97  and  CA_98 
REMARK   39  A    between atoms: CA_98  and  C_101 
REMARK   40  A    between atoms: CA_98  and  CB_99 
REMARK       I    between atoms: C_101  and  N_103 
REMARK   41  A    between atoms: N_103  and  CA_104 
REMARK   42  A    between atoms: CA_104  and  C_105 
ROOT
ATOM      1  CA  ARG     6       1.327 -18.472   9.299  1.00  0.00     0.186 C 
ENDROOT
BRANCH   1   2
ATOM      2  N   ARG     6       0.469 -19.442   8.579  1.00  0.00    -0.229 NA
ATOM      3  C   TYR     5       0.401 -20.734   8.924  1.00  0.00     0.275 C 
ATOM      4  O   TYR     5       1.025 -21.194   9.881  1.00  0.00    -0.268 OA
BRANCH   3   5
ATOM      5  CA  TYR     5      -0.585 -21.617   8.142  1.00  0.00     0.191 C 
BRANCH   5   6
ATOM      6  N   TYR     5      -0.435 -23.068   8.426  1.00  0.00    -0.228 NA
ATOM      7  C   GLU     4      -0.436 -24.008   7.467  1.00  0.00     0.274 C 
ATOM      8  O   GLU     4      -0.418 -23.733   6.274  1.00  0.00    -0.268 OA
BRANCH   7   9
ATOM      9  CA  GLU     4      -0.129 -25.447   7.929  1.00  0.00     0.187 C 
BRANCH   9  10
ATOM     10  CB  GLU     4       1.392 -25.647   8.038  1.00  0.00     0.045 C 
BRANCH  10  11
ATOM     11  CG  GLU     4       2.081 -26.320   6.831  1.00  0.00     0.100 C 
BRANCH  11  12
ATOM     12  CD  GLU     4       2.583 -25.344   5.767  1.00  0.00     0.185 C 
ATOM     13  OE1 GLU     4       2.978 -24.215   6.160  1.00  0.00    -0.647 OA
ATOM     14  OE2 GLU     4       2.151 -25.507   4.608  1.00  0.00    -0.647 OA
ENDBRANCH  11  12
ENDBRANCH  10  11
ENDBRANCH   9  10
BRANCH   9  15
ATOM     15  N   GLU     4      -0.676 -26.478   7.025  1.00  0.00    -0.229 NA
ATOM     16  C   PRO     3      -1.834 -27.120   7.120  1.00  0.00     0.272 C 
ATOM     17  O   PRO     3      -2.793 -26.694   7.765  1.00  0.00    -0.269 OA
BRANCH  16  18
ATOM     18  CA  PRO     3      -2.107 -28.141   6.013  1.00  0.00     0.165 C 
ATOM     19  N   PRO     3      -1.832 -27.659   4.642  1.00  0.00    -0.312 N 
ATOM     20  CD  PRO     3      -1.190 -28.741   3.853  1.00  0.00     0.105 C 
ATOM     21  C   ASP     2      -2.254 -26.475   4.164  1.00  0.00     0.257 C 
ATOM     22  CG  PRO     3      -1.288 -29.980   4.756  1.00  0.00     0.027 C 
ATOM     23  CB  PRO     3      -1.261 -29.403   6.169  1.00  0.00     0.034 C 
ATOM     24  O   ASP     2      -3.089 -25.807   4.792  1.00  0.00    -0.270 OA
BRANCH  21  25
ATOM     25  CA  ASP     2      -1.983 -26.112   2.686  1.00  0.00     0.195 C 
BRANCH  25  26
ATOM     26  CB  ASP     2      -1.078 -24.878   2.434  1.00  0.00     0.132 C 
BRANCH  26  27
ATOM     27  CG  ASP     2      -1.282 -24.345   1.004  1.00  0.00     0.188 C 
ATOM     28  OD2 ASP     2      -0.677 -24.976   0.100  1.00  0.00    -0.647 OA
ATOM     29  OD1 ASP     2      -1.496 -23.113   0.886  1.00  0.00    -0.647 OA
ENDBRANCH  26  27
ENDBRANCH  25  26
BRANCH  25  30
ATOM     30  N   ASP     2      -3.218 -25.752   1.969  1.00  0.00    -0.228 NA
ATOM     31  C   TYR     1      -4.054 -26.578   1.383  1.00  0.00     0.289 C 
ATOM     32  O   TYR     1      -4.058 -27.812   1.424  1.00  0.00    -0.268 OA
BRANCH  31  33
ATOM     33  CA  TYR     1      -5.101 -25.839   0.556  1.00  0.00     0.385 C 
ATOM     34  N   TYR     1      -6.405 -26.474   0.807  1.00  0.00     0.626 N 
BRANCH  33  35
ATOM     35  CB  TYR     1      -5.072 -24.375   0.987  1.00  0.00     0.075 C 
BRANCH  35  36
ATOM     36  CG  TYR     1      -6.091 -23.506   0.235  1.00  0.00    -0.019 A 
ATOM     37  CD2 TYR     1      -6.064 -23.393  -1.147  1.00  0.00    -0.002 A 
ATOM     38  CE2 TYR     1      -7.075 -22.714  -1.811  1.00  0.00     0.027 A 
ATOM     39  CZ  TYR     1      -8.110 -22.143  -1.072  1.00  0.00     0.131 A 
ATOM     40  CE1 TYR     1      -8.109 -22.224   0.309  1.00  0.00     0.027 A 
ATOM     41  OH  TYR     1      -9.195 -21.643  -1.698  1.00  0.00    -0.190 OA
ATOM     42  CD1 TYR     1      -7.098 -22.903   0.973  1.00  0.00    -0.002 A 
ENDBRANCH  35  36
ENDBRANCH  33  35
ENDBRANCH  31  33
ENDBRANCH  25  30
ENDBRANCH  21  25
ENDBRANCH  16  18
ENDBRANCH   9  15
ENDBRANCH   7   9
ENDBRANCH   5   6
BRANCH   5  43
ATOM     43  CB  TYR     5      -2.036 -21.177   8.394  1.00  0.00     0.060 C 
BRANCH  43  44
ATOM     44  CG  TYR     5      -2.948 -21.450   7.186  1.00  0.00    -0.020 A 
ATOM     45  CD2 TYR     5      -3.751 -22.582   7.148  1.00  0.00    -0.002 A 
ATOM     46  CE2 TYR     5      -4.578 -22.817   6.054  1.00  0.00     0.027 A 
ATOM     47  CZ  TYR     5      -4.601 -21.920   4.997  1.00  0.00     0.131 A 
ATOM     48  CE1 TYR     5      -3.813 -20.775   5.035  1.00  0.00     0.027 A 
ATOM     49  OH  TYR     5      -5.292 -22.210   3.873  1.00  0.00    -0.190 OA
ATOM     50  CD1 TYR     5      -2.978 -20.547   6.129  1.00  0.00    -0.002 A 
ENDBRANCH  43  44
ENDBRANCH   5  43
ENDBRANCH   3   5
ENDBRANCH   1   2
BRANCH   1  51
ATOM     51  CB  ARG     6       2.335 -17.780   8.387  1.00  0.00     0.036 C 
BRANCH  51  52
ATOM     52  CG  ARG     6       3.485 -18.686   7.942  1.00  0.00     0.029 C 
BRANCH  52  53
ATOM     53  CD  ARG     6       4.391 -17.952   6.958  1.00  0.00     0.145 C 
BRANCH  53  54
ATOM     54  NE  ARG     6       4.718 -16.602   7.448  1.00  0.00    -0.083 NA
ATOM     55  CZ  ARG     6       5.735 -15.837   7.009  1.00  0.00     0.782 C 
ATOM     56  NH2 ARG     6       5.994 -14.659   7.582  1.00  0.00     0.063 N 
ATOM     57  NH1 ARG     6       6.548 -16.283   6.058  1.00  0.00     0.063 N 
ENDBRANCH  53  54
ENDBRANCH  52  53
ENDBRANCH  51  52
ENDBRANCH   1  51
BRANCH   1  58
ATOM     58  C   ARG     6       0.515 -17.361   9.978  1.00  0.00     0.274 C 
ATOM     59  N   ASN     7      -0.713 -17.172   9.504  1.00  0.00    -0.228 NA
ATOM     60  O   ARG     6       1.026 -16.719  10.897  1.00  0.00    -0.268 OA
BRANCH  59  61
ATOM     61  CA  ASN     7      -1.675 -16.218  10.092  1.00  0.00     0.196 C 
BRANCH  61  62
ATOM     62  C   ASN     7      -3.129 -16.702   9.922  1.00  0.00     0.275 C 
ATOM     63  N   PHE     8      -3.517 -17.035   8.683  1.00  0.00    -0.228 NA
ATOM     64  O   ASN     7      -3.695 -17.115  10.916  1.00  0.00    -0.268 OA
BRANCH  63  65
ATOM     65  CA  PHE     8      -4.843 -17.601   8.332  1.00  0.00     0.191 C 
BRANCH  65  66
ATOM     66  CB  PHE     8      -5.119 -18.790   9.262  1.00  0.00     0.060 C 
BRANCH  66  67
ATOM     67  CG  PHE     8      -5.983 -19.901   8.636  1.00  0.00    -0.020 A 
ATOM     68  CD1 PHE     8      -6.524 -19.726   7.369  1.00  0.00    -0.004 A 
ATOM     69  CE1 PHE     8      -7.389 -20.686   6.845  1.00  0.00    -0.000 A 
ATOM     70  CZ  PHE     8      -7.691 -21.817   7.586  1.00  0.00    -0.000 A 
ATOM     71  CE2 PHE     8      -7.140 -22.001   8.850  1.00  0.00    -0.000 A 
ATOM     72  CD2 PHE     8      -6.274 -21.041   9.374  1.00  0.00    -0.004 A 
ENDBRANCH  66  67
ENDBRANCH  65  66
BRANCH  65  73
ATOM     73  C   PHE     8      -6.008 -16.586   8.341  1.00  0.00     0.275 C 
ATOM     74  N   TRP     9      -6.409 -16.132   7.152  1.00  0.00    -0.228 NA
ATOM     75  O   PHE     8      -6.367 -16.043   9.389  1.00  0.00    -0.268 OA
BRANCH  74  76
ATOM     76  CA  TRP     9      -7.594 -15.252   7.005  1.00  0.00     0.191 C 
BRANCH  76  77
ATOM     77  CB  TRP     9      -7.288 -14.182   5.944  1.00  0.00     0.062 C 
BRANCH  77  78
ATOM     78  CG  TRP     9      -7.913 -12.824   6.261  1.00  0.00     0.001 A 
ATOM     79  CD1 TRP     9      -9.116 -12.409   5.875  1.00  0.00     0.095 A 
ATOM     80  NE1 TRP     9      -9.220 -11.099   6.063  1.00  0.00    -0.244 NA
ATOM     81  CE2 TRP     9      -8.097 -10.637   6.592  1.00  0.00     0.081 A 
ATOM     82  CD2 TRP     9      -7.225 -11.707   6.724  1.00  0.00     0.015 A 
ATOM     83  CZ2 TRP     9      -7.654  -9.351   6.899  1.00  0.00     0.019 A 
ATOM     84  CE3 TRP     9      -5.917 -11.510   7.141  1.00  0.00     0.001 A 
ATOM     85  CZ3 TRP     9      -5.469 -10.226   7.434  1.00  0.00     0.000 A 
ATOM     86  CH2 TRP     9      -6.350  -9.151   7.329  1.00  0.00     0.002 A 
ENDBRANCH  77  78
ENDBRANCH  76  77
BRANCH  76  87
ATOM     87  C   TRP     9      -8.913 -15.997   6.698  1.00  0.00     0.275 C 
ATOM     88  O   TRP     9      -9.317 -16.114   5.545  1.00  0.00    -0.268 OA
ATOM     89  N   GLY    10      -9.514 -16.579   7.734  1.00  0.00    -0.226 NA
BRANCH  89  90
ATOM     90  CA  GLY    10     -10.767 -17.378   7.636  1.00  0.00     0.218 C 
BRANCH  90  91
ATOM     91  C   GLY    10     -10.607 -18.906   7.684  1.00  0.00     0.277 C 
ATOM     92  N   CYS    11     -11.119 -19.558   6.641  1.00  0.00    -0.228 NA
ATOM     93  O   GLY    10     -10.195 -19.459   8.697  1.00  0.00    -0.268 OA
BRANCH  92  94
ATOM     94  CA  CYS    11     -11.089 -21.021   6.414  1.00  0.00     0.198 C 
BRANCH  94  95
ATOM     95  C   CYS    11     -10.537 -21.274   4.997  1.00  0.00     0.275 C 
ATOM     96  O   CYS    11     -10.013 -20.348   4.388  1.00  0.00    -0.268 OA
ATOM     97  N   GLY    12     -10.849 -22.440   4.451  1.00  0.00    -0.225 NA
BRANCH  97  98
ATOM     98  CA  GLY    12     -10.418 -22.834   3.101  1.00  0.00     0.226 C 
BRANCH  98  99
ATOM     99  C   GLY    12     -10.446 -24.378   3.022  1.00  0.00     0.211 C 
ATOM    100  O1  GLY    12     -11.503 -24.943   3.400  1.00  0.00    -0.646 OA
ATOM    101  O2  GLY    12      -9.443 -24.954   2.560  1.00  0.00    -0.646 OA
ENDBRANCH  98  99
ENDBRANCH  97  98
ENDBRANCH  94  95
BRANCH  94 102
ATOM    102  CB  CYS    11     -12.509 -21.582   6.410  1.00  0.00     0.103 C 
ATOM    103  SG  CYS    11     -12.849 -22.927   7.609  1.00  0.00    -0.080 SA
ENDBRANCH  94 102
ENDBRANCH  92  94
ENDBRANCH  90  91
ENDBRANCH  89  90
ENDBRANCH  76  87
ENDBRANCH  74  76
ENDBRANCH  65  73
ENDBRANCH  63  65
ENDBRANCH  61  62
BRANCH  61 104
ATOM    104  CB  ASN     7      -1.496 -14.812   9.505  1.00  0.00     0.126 C 
BRANCH 104 105
ATOM    105  CG  ASN     7      -2.567 -13.791   9.932  1.00  0.00     0.276 C 
ATOM    106  ND2 ASN     7      -3.359 -13.354   8.980  1.00  0.00    -0.107 N 
ATOM    107  OD1 ASN     7      -2.628 -13.255  11.032  1.00  0.00    -0.269 OA
ENDBRANCH 104 105
ENDBRANCH  61 104
ENDBRANCH  59  61
ENDBRANCH   1  58
TORSDOF 42
ENDMDL
MODEL 6
REMARK VINA RESULT:      -5.3      4.712     14.011
REMARK WARNING: 32 MAX_TORS EXCEEDED!!!
REMARK  42 active torsions:
REMARK  status: ('A' for Active; 'I' for Inactive)
REMARK    1  A    between atoms: CA_2  and  CB_3 
REMARK    2  A    between atoms: CA_2  and  C_11 
REMARK    3  A    between atoms: CB_3  and  CG_4 
REMARK       I    between atoms: C_11  and  N_13 
REMARK    4  A    between atoms: N_13  and  CA_14 
REMARK    5  A    between atoms: CA_14  and  CB_15 
REMARK    6  A    between atoms: CA_14  and  C_19 
REMARK    7  A    between atoms: CB_15  and  CG_16 
REMARK       I    between atoms: C_19  and  N_21 
REMARK    8  A    between atoms: CA_22  and  C_26 
REMARK       I    between atoms: C_26  and  N_28 
REMARK    9  A    between atoms: N_28  and  CA_29 
REMARK   10  A    between atoms: CA_29  and  C_35 
REMARK   11  A    between atoms: CA_29  and  CB_30 
REMARK   12  A    between atoms: CB_30  and  CG_31 
REMARK   13  A    between atoms: CG_31  and  CD_32 
REMARK       I    between atoms: C_35  and  N_37 
REMARK   14  A    between atoms: N_37  and  CA_38 
REMARK   15  A    between atoms: CA_38  and  CB_39 
REMARK   16  A    between atoms: CA_38  and  C_47 
REMARK   17  A    between atoms: CB_39  and  CG_40 
REMARK       I    between atoms: C_47  and  N_49 
REMARK   18  A    between atoms: N_49  and  CA_50 
REMARK   19  A    between atoms: CA_50  and  CB_51 
REMARK   20  A    between atoms: CA_50  and  C_58 
REMARK   21  A    between atoms: CB_51  and  CG_52 
REMARK   22  A    between atoms: CG_52  and  CD_53 
REMARK   23  A    between atoms: CD_53  and  NE_54 
REMARK       I    between atoms: C_58  and  N_60 
REMARK   24  A    between atoms: N_60  and  CA_61 
REMARK   25  A    between atoms: CA_61  and  C_66 
REMARK   26  A    between atoms: CA_61  and  CB_62 
REMARK   27  A    between atoms: CB_62  and  CG_63 
REMARK       I    between atoms: C_66  and  N_68 
REMARK   28  A    between atoms: N_68  and  CA_69 
REMARK   29  A    between atoms: CA_69  and  CB_70 
REMARK   30  A    between atoms: CA_69  and  C_77 
REMARK   31  A    between atoms: CB_70  and  CG_71 
REMARK       I    between atoms: C_77  and  N_79 
REMARK   32  A    between atoms: N_79  and  CA_80 
REMARK   33  A    between atoms: CA_80  and  CB_81 
REMARK   34  A    between atoms: CA_80  and  C_91 
REMARK   35  A    between atoms: CB_81  and  CG_82 
REMARK       I    between atoms: C_91  and  N_93 
REMARK   36  A    between atoms: N_93  and  CA_94 
REMARK   37  A    between atoms: CA_94  and  C_95 
REMARK       I    between atoms: C_95  and  N_97 
REMARK   38  A    between atoms: N_97  and  CA_98 
REMARK   39  A    between atoms: CA_98  and  C_101 
REMARK   40  A    between atoms: CA_98  and  CB_99 
REMARK       I    between atoms: C_101  and  N_103 
REMARK   41  A    between atoms: N_103  and  CA_104 
REMARK   42  A    between atoms: CA_104  and  C_105 
ROOT
ATOM      1  CA  ARG     6     -11.082 -19.682   5.452  1.00  0.00     0.186 C 
ENDROOT
BRANCH   1   2
ATOM      2  N   ARG     6     -10.565 -18.392   4.939  1.00  0.00    -0.229 NA
ATOM      3  C   TYR     5     -11.266 -17.254   5.024  1.00  0.00     0.275 C 
ATOM      4  O   TYR     5     -12.372 -17.200   5.561  1.00  0.00    -0.268 OA
BRANCH   3   5
ATOM      5  CA  TYR     5     -10.583 -15.972   4.519  1.00  0.00     0.191 C 
BRANCH   5   6
ATOM      6  N   TYR     5      -9.245 -15.737   5.121  1.00  0.00    -0.228 NA
ATOM      7  C   GLU     4      -8.660 -14.528   5.160  1.00  0.00     0.274 C 
ATOM      8  O   GLU     4      -9.241 -13.502   4.830  1.00  0.00    -0.268 OA
BRANCH   7   9
ATOM      9  CA  GLU     4      -7.335 -14.442   5.946  1.00  0.00     0.187 C 
BRANCH   9  10
ATOM     10  CB  GLU     4      -7.526 -15.030   7.354  1.00  0.00     0.045 C 
BRANCH  10  11
ATOM     11  CG  GLU     4      -6.810 -16.369   7.638  1.00  0.00     0.100 C 
BRANCH  11  12
ATOM     12  CD  GLU     4      -5.638 -16.262   8.612  1.00  0.00     0.185 C 
ATOM     13  OE1 GLU     4      -4.599 -16.918   8.341  1.00  0.00    -0.647 OA
ATOM     14  OE2 GLU     4      -5.913 -15.951   9.789  1.00  0.00    -0.647 OA
ENDBRANCH  11  12
ENDBRANCH  10  11
ENDBRANCH   9  10
BRANCH   9  15
ATOM     15  N   GLU     4      -6.824 -13.065   6.076  1.00  0.00    -0.229 NA
ATOM     16  C   PRO     3      -7.345 -12.058   6.767  1.00  0.00     0.272 C 
ATOM     17  O   PRO     3      -8.131 -12.215   7.702  1.00  0.00    -0.269 OA
BRANCH  16  18
ATOM     18  CA  PRO     3      -6.566 -10.743   6.694  1.00  0.00     0.165 C 
ATOM     19  N   PRO     3      -7.335  -9.542   7.083  1.00  0.00    -0.312 N 
ATOM     20  CD  PRO     3      -6.475  -8.637   7.887  1.00  0.00     0.105 C 
ATOM     21  C   ASP     2      -8.571  -9.263   6.631  1.00  0.00     0.257 C 
ATOM     22  CG  PRO     3      -5.072  -9.253   7.781  1.00  0.00     0.027 C 
ATOM     23  CB  PRO     3      -5.342 -10.745   7.608  1.00  0.00     0.034 C 
ATOM     24  O   ASP     2      -9.052  -9.905   5.684  1.00  0.00    -0.270 OA
BRANCH  21  25
ATOM     25  CA  ASP     2      -9.248  -7.934   7.037  1.00  0.00     0.195 C 
BRANCH  25  26
ATOM     26  CB  ASP     2     -10.637  -8.047   7.716  1.00  0.00     0.132 C 
BRANCH  26  27
ATOM     27  CG  ASP     2     -10.495  -8.616   9.140  1.00  0.00     0.188 C 
ATOM     28  OD2 ASP     2     -10.532  -9.869   9.229  1.00  0.00    -0.647 OA
ATOM     29  OD1 ASP     2     -10.921  -7.898  10.079  1.00  0.00    -0.647 OA
ENDBRANCH  26  27
ENDBRANCH  25  26
BRANCH  25  30
ATOM     30  N   ASP     2      -9.532  -7.079   5.872  1.00  0.00    -0.228 NA
ATOM     31  C   TYR     1      -8.654  -6.429   5.143  1.00  0.00     0.289 C 
ATOM     32  O   TYR     1      -7.422  -6.502   5.190  1.00  0.00    -0.268 OA
BRANCH  31  33
ATOM     33  CA  TYR     1      -9.324  -5.475   4.159  1.00  0.00     0.385 C 
ATOM     34  N   TYR     1     -10.468  -6.179   3.555  1.00  0.00     0.626 N 
BRANCH  33  35
ATOM     35  CB  TYR     1      -9.749  -4.236   4.944  1.00  0.00     0.075 C 
BRANCH  35  36
ATOM     36  CG  TYR     1      -8.623  -3.201   5.090  1.00  0.00    -0.019 A 
ATOM     37  CD2 TYR     1      -8.244  -2.716   6.332  1.00  0.00    -0.002 A 
ATOM     38  CE2 TYR     1      -7.138  -1.888   6.449  1.00  0.00     0.027 A 
ATOM     39  CZ  TYR     1      -6.420  -1.546   5.304  1.00  0.00     0.131 A 
ATOM     40  CE1 TYR     1      -6.828  -2.000   4.063  1.00  0.00     0.027 A 
ATOM     41  OH  TYR     1      -5.240  -0.901   5.410  1.00  0.00    -0.190 OA
ATOM     42  CD1 TYR     1      -7.934  -2.828   3.945  1.00  0.00    -0.002 A 
ENDBRANCH  35  36
ENDBRANCH  33  35
ENDBRANCH  31  33
ENDBRANCH  25  30
ENDBRANCH  21  25
ENDBRANCH  16  18
ENDBRANCH   9  15
ENDBRANCH   7   9
ENDBRANCH   5   6
BRANCH   5  43
ATOM     43  CB  TYR     5     -10.479 -15.972   2.985  1.00  0.00     0.060 C 
BRANCH  43  44
ATOM     44  CG  TYR     5     -11.677 -15.274   2.319  1.00  0.00    -0.020 A 
ATOM     45  CD2 TYR     5     -11.892 -13.914   2.499  1.00  0.00    -0.002 A 
ATOM     46  CE2 TYR     5     -12.974 -13.289   1.886  1.00  0.00     0.027 A 
ATOM     47  CZ  TYR     5     -13.841 -14.025   1.093  1.00  0.00     0.131 A 
ATOM     48  CE1 TYR     5     -13.622 -15.383   0.893  1.00  0.00     0.027 A 
ATOM     49  OH  TYR     5     -14.968 -13.458   0.610  1.00  0.00    -0.190 OA
ATOM     50  CD1 TYR     5     -12.542 -16.009   1.516  1.00  0.00    -0.002 A 
ENDBRANCH  43  44
ENDBRANCH   5  43
ENDBRANCH   3   5
ENDBRANCH   1   2
BRANCH   1  51
ATOM     51  CB  ARG     6     -11.177 -20.756   4.373  1.00  0.00     0.036 C 
BRANCH  51  52
ATOM     52  CG  ARG     6     -10.352 -20.444   3.121  1.00  0.00     0.029 C 
BRANCH  52  53
ATOM     53  CD  ARG     6     -11.270 -20.087   1.955  1.00  0.00     0.145 C 
BRANCH  53  54
ATOM     54  NE  ARG     6     -10.638 -20.417   0.667  1.00  0.00    -0.083 NA
ATOM     55  CZ  ARG     6     -10.933 -19.845  -0.516  1.00  0.00     0.782 C 
ATOM     56  NH2 ARG     6     -10.357 -20.278  -1.640  1.00  0.00     0.063 N 
ATOM     57  NH1 ARG     6     -11.864 -18.901  -0.592  1.00  0.00     0.063 N 
ENDBRANCH  53  54
ENDBRANCH  52  53
ENDBRANCH  51  52
ENDBRANCH   1  51
BRANCH   1  58
ATOM     58  C   ARG     6     -10.206 -20.262   6.571  1.00  0.00     0.274 C 
ATOM     59  N   ASN     7      -9.698 -21.469   6.339  1.00  0.00    -0.228 NA
ATOM     60  O   ARG     6     -10.027 -19.603   7.596  1.00  0.00    -0.268 OA
BRANCH  59  61
ATOM     61  CA  ASN     7      -8.755 -22.145   7.254  1.00  0.00     0.196 C 
BRANCH  61  62
ATOM     62  C   ASN     7      -7.330 -22.190   6.668  1.00  0.00     0.275 C 
ATOM     63  N   PHE     8      -7.034 -23.226   5.869  1.00  0.00    -0.228 NA
ATOM     64  O   ASN     7      -6.712 -21.143   6.634  1.00  0.00    -0.268 OA
BRANCH  63  65
ATOM     65  CA  PHE     8      -5.751 -23.400   5.145  1.00  0.00     0.191 C 
BRANCH  65  66
ATOM     66  CB  PHE     8      -5.593 -22.233   4.160  1.00  0.00     0.060 C 
BRANCH  66  67
ATOM     67  CG  PHE     8      -5.665 -22.640   2.676  1.00  0.00    -0.020 A 
ATOM     68  CD1 PHE     8      -4.519 -23.065   2.019  1.00  0.00    -0.004 A 
ATOM     69  CE1 PHE     8      -4.563 -23.335   0.651  1.00  0.00    -0.000 A 
ATOM     70  CZ  PHE     8      -5.755 -23.191  -0.041  1.00  0.00    -0.000 A 
ATOM     71  CE2 PHE     8      -6.908 -22.778   0.619  1.00  0.00    -0.000 A 
ATOM     72  CD2 PHE     8      -6.864 -22.508   1.987  1.00  0.00    -0.004 A 
ENDBRANCH  66  67
ENDBRANCH  65  66
BRANCH  65  73
ATOM     73  C   PHE     8      -4.508 -23.556   6.049  1.00  0.00     0.275 C 
ATOM     74  N   TRP     9      -3.322 -23.531   5.438  1.00  0.00    -0.228 NA
ATOM     75  O   PHE     8      -4.618 -23.933   7.219  1.00  0.00    -0.268 OA
BRANCH  74  76
ATOM     76  CA  TRP     9      -2.046 -23.546   6.194  1.00  0.00     0.191 C 
BRANCH  76  77
ATOM     77  CB  TRP     9      -1.191 -24.725   5.700  1.00  0.00     0.062 C 
BRANCH  77  78
ATOM     78  CG  TRP     9      -1.822 -25.477   4.529  1.00  0.00     0.001 A 
ATOM     79  CD1 TRP     9      -2.426 -26.660   4.596  1.00  0.00     0.095 A 
ATOM     80  NE1 TRP     9      -2.590 -27.149   3.373  1.00  0.00    -0.244 NA
ATOM     81  CE2 TRP     9      -2.115 -26.289   2.485  1.00  0.00     0.081 A 
ATOM     82  CD2 TRP     9      -1.600 -25.208   3.182  1.00  0.00     0.015 A 
ATOM     83  CZ2 TRP     9      -1.961 -26.347   1.100  1.00  0.00     0.019 A 
ATOM     84  CE3 TRP     9      -0.922 -24.194   2.522  1.00  0.00     0.001 A 
ATOM     85  CZ3 TRP     9      -0.756 -24.256   1.143  1.00  0.00     0.000 A 
ATOM     86  CH2 TRP     9      -1.295 -25.328   0.434  1.00  0.00     0.002 A 
ENDBRANCH  77  78
ENDBRANCH  76  77
BRANCH  76  87
ATOM     87  C   TRP     9      -1.260 -22.216   6.152  1.00  0.00     0.275 C 
ATOM     88  O   TRP     9      -0.371 -22.035   5.326  1.00  0.00    -0.268 OA
ATOM     89  N   GLY    10      -1.673 -21.263   6.987  1.00  0.00    -0.226 NA
BRANCH  89  90
ATOM     90  CA  GLY    10      -1.075 -19.902   7.067  1.00  0.00     0.218 C 
BRANCH  90  91
ATOM     91  C   GLY    10       0.081 -19.722   8.064  1.00  0.00     0.277 C 
ATOM     92  N   CYS    11       0.794 -18.607   7.905  1.00  0.00    -0.228 NA
ATOM     93  O   GLY    10       0.402 -20.633   8.818  1.00  0.00    -0.268 OA
BRANCH  92  94
ATOM     94  CA  CYS    11       1.941 -18.169   8.730  1.00  0.00     0.198 C 
BRANCH  94  95
ATOM     95  C   CYS    11       1.403 -17.258   9.851  1.00  0.00     0.275 C 
ATOM     96  O   CYS    11       1.648 -17.541  11.019  1.00  0.00    -0.268 OA
ATOM     97  N   GLY    12       0.537 -16.327   9.479  1.00  0.00    -0.225 NA
BRANCH  97  98
ATOM     98  CA  GLY    12      -0.084 -15.386  10.424  1.00  0.00     0.226 C 
BRANCH  98  99
ATOM     99  C   GLY    12      -1.336 -14.783   9.745  1.00  0.00     0.211 C 
ATOM    100  O1  GLY    12      -1.891 -13.823  10.337  1.00  0.00    -0.646 OA
ATOM    101  O2  GLY    12      -1.687 -15.259   8.650  1.00  0.00    -0.646 OA
ENDBRANCH  98  99
ENDBRANCH  97  98
ENDBRANCH  94  95
BRANCH  94 102
ATOM    102  CB  CYS    11       2.880 -17.294   7.903  1.00  0.00     0.103 C 
ATOM    103  SG  CYS    11       4.660 -17.731   7.969  1.00  0.00    -0.080 SA
ENDBRANCH  94 102
ENDBRANCH  92  94
ENDBRANCH  90  91
ENDBRANCH  89  90
ENDBRANCH  76  87
ENDBRANCH  74  76
ENDBRANCH  65  73
ENDBRANCH  63  65
ENDBRANCH  61  62
BRANCH  61 104
ATOM    104  CB  ASN     7      -9.242 -23.555   7.612  1.00  0.00     0.126 C 
BRANCH 104 105
ATOM    105  CG  ASN     7      -9.049 -23.950   9.088  1.00  0.00     0.276 C 
ATOM    106  ND2 ASN     7     -10.120 -24.381   9.714  1.00  0.00    -0.107 N 
ATOM    107  OD1 ASN     7      -8.034 -23.748   9.743  1.00  0.00    -0.269 OA
ENDBRANCH 104 105
ENDBRANCH  61 104
ENDBRANCH  59  61
ENDBRANCH   1  58
TORSDOF 42
ENDMDL
MODEL 7
REMARK VINA RESULT:      -5.3      3.625      7.818
REMARK WARNING: 32 MAX_TORS EXCEEDED!!!
REMARK  42 active torsions:
REMARK  status: ('A' for Active; 'I' for Inactive)
REMARK    1  A    between atoms: CA_2  and  CB_3 
REMARK    2  A    between atoms: CA_2  and  C_11 
REMARK    3  A    between atoms: CB_3  and  CG_4 
REMARK       I    between atoms: C_11  and  N_13 
REMARK    4  A    between atoms: N_13  and  CA_14 
REMARK    5  A    between atoms: CA_14  and  CB_15 
REMARK    6  A    between atoms: CA_14  and  C_19 
REMARK    7  A    between atoms: CB_15  and  CG_16 
REMARK       I    between atoms: C_19  and  N_21 
REMARK    8  A    between atoms: CA_22  and  C_26 
REMARK       I    between atoms: C_26  and  N_28 
REMARK    9  A    between atoms: N_28  and  CA_29 
REMARK   10  A    between atoms: CA_29  and  C_35 
REMARK   11  A    between atoms: CA_29  and  CB_30 
REMARK   12  A    between atoms: CB_30  and  CG_31 
REMARK   13  A    between atoms: CG_31  and  CD_32 
REMARK       I    between atoms: C_35  and  N_37 
REMARK   14  A    between atoms: N_37  and  CA_38 
REMARK   15  A    between atoms: CA_38  and  CB_39 
REMARK   16  A    between atoms: CA_38  and  C_47 
REMARK   17  A    between atoms: CB_39  and  CG_40 
REMARK       I    between atoms: C_47  and  N_49 
REMARK   18  A    between atoms: N_49  and  CA_50 
REMARK   19  A    between atoms: CA_50  and  CB_51 
REMARK   20  A    between atoms: CA_50  and  C_58 
REMARK   21  A    between atoms: CB_51  and  CG_52 
REMARK   22  A    between atoms: CG_52  and  CD_53 
REMARK   23  A    between atoms: CD_53  and  NE_54 
REMARK       I    between atoms: C_58  and  N_60 
REMARK   24  A    between atoms: N_60  and  CA_61 
REMARK   25  A    between atoms: CA_61  and  C_66 
REMARK   26  A    between atoms: CA_61  and  CB_62 
REMARK   27  A    between atoms: CB_62  and  CG_63 
REMARK       I    between atoms: C_66  and  N_68 
REMARK   28  A    between atoms: N_68  and  CA_69 
REMARK   29  A    between atoms: CA_69  and  CB_70 
REMARK   30  A    between atoms: CA_69  and  C_77 
REMARK   31  A    between atoms: CB_70  and  CG_71 
REMARK       I    between atoms: C_77  and  N_79 
REMARK   32  A    between atoms: N_79  and  CA_80 
REMARK   33  A    between atoms: CA_80  and  CB_81 
REMARK   34  A    between atoms: CA_80  and  C_91 
REMARK   35  A    between atoms: CB_81  and  CG_82 
REMARK       I    between atoms: C_91  and  N_93 
REMARK   36  A    between atoms: N_93  and  CA_94 
REMARK   37  A    between atoms: CA_94  and  C_95 
REMARK       I    between atoms: C_95  and  N_97 
REMARK   38  A    between atoms: N_97  and  CA_98 
REMARK   39  A    between atoms: CA_98  and  C_101 
REMARK   40  A    between atoms: CA_98  and  CB_99 
REMARK       I    between atoms: C_101  and  N_103 
REMARK   41  A    between atoms: N_103  and  CA_104 
REMARK   42  A    between atoms: CA_104  and  C_105 
ROOT
ATOM      1  CA  ARG     6       0.118 -18.014   8.712  1.00  0.00     0.186 C 
ENDROOT
BRANCH   1   2
ATOM      2  N   ARG     6      -0.414 -18.762   7.549  1.00  0.00    -0.229 NA
ATOM      3  C   TYR     5      -0.152 -20.060   7.349  1.00  0.00     0.275 C 
ATOM      4  O   TYR     5       0.525 -20.724   8.136  1.00  0.00    -0.268 OA
BRANCH   3   5
ATOM      5  CA  TYR     5      -0.827 -20.734   6.144  1.00  0.00     0.191 C 
BRANCH   5   6
ATOM      6  N   TYR     5      -1.230 -22.141   6.400  1.00  0.00    -0.228 NA
ATOM      7  C   GLU     4      -0.664 -23.191   5.781  1.00  0.00     0.274 C 
ATOM      8  O   GLU     4       0.322 -23.081   5.063  1.00  0.00    -0.268 OA
BRANCH   7   9
ATOM      9  CA  GLU     4      -1.106 -24.585   6.272  1.00  0.00     0.187 C 
BRANCH   9  10
ATOM     10  CB  GLU     4      -0.430 -24.904   7.615  1.00  0.00     0.045 C 
BRANCH  10  11
ATOM     11  CG  GLU     4      -1.373 -25.144   8.815  1.00  0.00     0.100 C 
BRANCH  11  12
ATOM     12  CD  GLU     4      -1.922 -23.867   9.450  1.00  0.00     0.185 C 
ATOM     13  OE1 GLU     4      -3.056 -23.475   9.071  1.00  0.00    -0.647 OA
ATOM     14  OE2 GLU     4      -1.084 -23.065   9.909  1.00  0.00    -0.647 OA
ENDBRANCH  11  12
ENDBRANCH  10  11
ENDBRANCH   9  10
BRANCH   9  15
ATOM     15  N   GLU     4      -0.790 -25.665   5.318  1.00  0.00    -0.229 NA
ATOM     16  C   PRO     3      -1.261 -26.906   5.299  1.00  0.00     0.272 C 
ATOM     17  O   PRO     3      -2.311 -27.240   5.850  1.00  0.00    -0.269 OA
BRANCH  16  18
ATOM     18  CA  PRO     3      -0.729 -27.790   4.169  1.00  0.00     0.165 C 
ATOM     19  N   PRO     3      -0.985 -27.276   2.806  1.00  0.00    -0.312 N 
ATOM     20  CD  PRO     3       0.210 -27.507   1.954  1.00  0.00     0.105 C 
ATOM     21  C   ASP     2      -2.179 -26.820   2.387  1.00  0.00     0.257 C 
ATOM     22  CG  PRO     3       1.127 -28.388   2.816  1.00  0.00     0.027 C 
ATOM     23  CB  PRO     3       0.784 -27.979   4.245  1.00  0.00     0.034 C 
ATOM     24  O   ASP     2      -3.196 -27.007   3.071  1.00  0.00    -0.270 OA
BRANCH  21  25
ATOM     25  CA  ASP     2      -2.353 -26.387   0.913  1.00  0.00     0.195 C 
BRANCH  25  26
ATOM     26  CB  ASP     2      -1.408 -25.267   0.408  1.00  0.00     0.132 C 
BRANCH  26  27
ATOM     27  CG  ASP     2      -1.458 -24.053   1.355  1.00  0.00     0.188 C 
ATOM     28  OD2 ASP     2      -2.109 -23.064   0.934  1.00  0.00    -0.647 OA
ATOM     29  OD1 ASP     2      -0.470 -23.888   2.113  1.00  0.00    -0.647 OA
ENDBRANCH  26  27
ENDBRANCH  25  26
BRANCH  25  30
ATOM     30  N   ASP     2      -3.687 -25.817   0.658  1.00  0.00    -0.228 NA
ATOM     31  C   TYR     1      -4.426 -25.999  -0.412  1.00  0.00     0.289 C 
ATOM     32  O   TYR     1      -4.228 -26.778  -1.350  1.00  0.00    -0.268 OA
BRANCH  31  33
ATOM     33  CA  TYR     1      -5.646 -25.084  -0.426  1.00  0.00     0.385 C 
ATOM     34  N   TYR     1      -6.255 -25.163  -1.764  1.00  0.00     0.626 N 
BRANCH  33  35
ATOM     35  CB  TYR     1      -6.589 -25.564   0.675  1.00  0.00     0.075 C 
BRANCH  35  36
ATOM     36  CG  TYR     1      -7.443 -24.435   1.270  1.00  0.00    -0.019 A 
ATOM     37  CD2 TYR     1      -6.895 -23.199   1.577  1.00  0.00    -0.002 A 
ATOM     38  CE2 TYR     1      -7.712 -22.155   1.985  1.00  0.00     0.027 A 
ATOM     39  CZ  TYR     1      -9.086 -22.368   2.088  1.00  0.00     0.131 A 
ATOM     40  CE1 TYR     1      -9.621 -23.615   1.820  1.00  0.00     0.027 A 
ATOM     41  OH  TYR     1      -9.919 -21.329   2.299  1.00  0.00    -0.190 OA
ATOM     42  CD1 TYR     1      -8.804 -24.659   1.412  1.00  0.00    -0.002 A 
ENDBRANCH  35  36
ENDBRANCH  33  35
ENDBRANCH  31  33
ENDBRANCH  25  30
ENDBRANCH  21  25
ENDBRANCH  16  18
ENDBRANCH   9  15
ENDBRANCH   7   9
ENDBRANCH   5   6
BRANCH   5  43
ATOM     43  CB  TYR     5      -2.040 -19.917   5.666  1.00  0.00     0.060 C 
BRANCH  43  44
ATOM     44  CG  TYR     5      -3.305 -20.780   5.523  1.00  0.00    -0.020 A 
ATOM     45  CD2 TYR     5      -4.233 -20.850   6.554  1.00  0.00    -0.002 A 
ATOM     46  CE2 TYR     5      -5.378 -21.627   6.413  1.00  0.00     0.027 A 
ATOM     47  CZ  TYR     5      -5.596 -22.335   5.241  1.00  0.00     0.131 A 
ATOM     48  CE1 TYR     5      -4.680 -22.257   4.197  1.00  0.00     0.027 A 
ATOM     49  OH  TYR     5      -6.630 -23.199   5.149  1.00  0.00    -0.190 OA
ATOM     50  CD1 TYR     5      -3.528 -21.484   4.345  1.00  0.00    -0.002 A 
ENDBRANCH  43  44
ENDBRANCH   5  43
ENDBRANCH   3   5
ENDBRANCH   1   2
BRANCH   1  51
ATOM     51  CB  ARG     6       1.138 -16.950   8.317  1.00  0.00     0.036 C 
BRANCH  51  52
ATOM     52  CG  ARG     6       2.550 -17.229   8.838  1.00  0.00     0.029 C 
BRANCH  52  53
ATOM     53  CD  ARG     6       3.527 -17.371   7.675  1.00  0.00     0.145 C 
BRANCH  53  54
ATOM     54  NE  ARG     6       3.251 -16.371   6.629  1.00  0.00    -0.083 NA
ATOM     55  CZ  ARG     6       4.099 -16.016   5.645  1.00  0.00     0.782 C 
ATOM     56  NH2 ARG     6       3.780 -15.036   4.797  1.00  0.00     0.063 N 
ATOM     57  NH1 ARG     6       5.300 -16.577   5.559  1.00  0.00     0.063 N 
ENDBRANCH  53  54
ENDBRANCH  52  53
ENDBRANCH  51  52
ENDBRANCH   1  51
BRANCH   1  58
ATOM     58  C   ARG     6      -0.984 -17.294   9.500  1.00  0.00     0.274 C 
ATOM     59  N   ASN     7      -2.075 -16.977   8.809  1.00  0.00    -0.228 NA
ATOM     60  O   ARG     6      -0.806 -17.049  10.694  1.00  0.00    -0.268 OA
BRANCH  59  61
ATOM     61  CA  ASN     7      -3.277 -16.371   9.417  1.00  0.00     0.196 C 
BRANCH  61  62
ATOM     62  C   ASN     7      -4.571 -16.995   8.860  1.00  0.00     0.275 C 
ATOM     63  N   PHE     8      -5.709 -16.312   9.057  1.00  0.00    -0.228 NA
ATOM     64  O   ASN     7      -4.452 -17.822   7.977  1.00  0.00    -0.268 OA
BRANCH  63  65
ATOM     65  CA  PHE     8      -7.037 -16.705   8.524  1.00  0.00     0.191 C 
BRANCH  65  66
ATOM     66  CB  PHE     8      -7.766 -17.519   9.602  1.00  0.00     0.060 C 
BRANCH  66  67
ATOM     67  CG  PHE     8      -7.685 -19.045   9.410  1.00  0.00    -0.020 A 
ATOM     68  CD1 PHE     8      -8.588 -19.686   8.572  1.00  0.00    -0.004 A 
ATOM     69  CE1 PHE     8      -8.580 -21.077   8.478  1.00  0.00    -0.000 A 
ATOM     70  CZ  PHE     8      -7.661 -21.811   9.210  1.00  0.00    -0.000 A 
ATOM     71  CE2 PHE     8      -6.747 -21.170  10.040  1.00  0.00    -0.000 A 
ATOM     72  CD2 PHE     8      -6.755 -19.779  10.134  1.00  0.00    -0.004 A 
ENDBRANCH  66  67
ENDBRANCH  65  66
BRANCH  65  73
ATOM     73  C   PHE     8      -7.905 -15.535   8.008  1.00  0.00     0.275 C 
ATOM     74  N   TRP     9      -7.973 -15.386   6.684  1.00  0.00    -0.228 NA
ATOM     75  O   PHE     8      -8.295 -14.650   8.773  1.00  0.00    -0.268 OA
BRANCH  74  76
ATOM     76  CA  TRP     9      -8.865 -14.385   6.049  1.00  0.00     0.191 C 
BRANCH  76  77
ATOM     77  CB  TRP     9      -8.025 -13.165   5.634  1.00  0.00     0.062 C 
BRANCH  77  78
ATOM     78  CG  TRP     9      -8.392 -11.894   6.399  1.00  0.00     0.001 A 
ATOM     79  CD1 TRP     9      -9.588 -11.313   6.420  1.00  0.00     0.095 A 
ATOM     80  NE1 TRP     9      -9.485 -10.091   6.927  1.00  0.00    -0.244 NA
ATOM     81  CE2 TRP     9      -8.226  -9.857   7.265  1.00  0.00     0.081 A 
ATOM     82  CD2 TRP     9      -7.487 -10.982   6.932  1.00  0.00     0.015 A 
ATOM     83  CZ2 TRP     9      -7.570  -8.725   7.749  1.00  0.00     0.019 A 
ATOM     84  CE3 TRP     9      -6.106 -10.988   7.058  1.00  0.00     0.001 A 
ATOM     85  CZ3 TRP     9      -5.449  -9.855   7.528  1.00  0.00     0.000 A 
ATOM     86  CH2 TRP     9      -6.190  -8.732   7.889  1.00  0.00     0.002 A 
ENDBRANCH  77  78
ENDBRANCH  76  77
BRANCH  76  87
ATOM     87  C   TRP     9      -9.701 -14.928   4.868  1.00  0.00     0.275 C 
ATOM     88  O   TRP     9      -9.164 -15.511   3.931  1.00  0.00    -0.268 OA
ATOM     89  N   GLY    10     -11.024 -14.814   4.983  1.00  0.00    -0.226 NA
BRANCH  89  90
ATOM     90  CA  GLY    10     -11.999 -15.314   3.976  1.00  0.00     0.218 C 
BRANCH  90  91
ATOM     91  C   GLY    10     -13.217 -14.417   3.701  1.00  0.00     0.277 C 
ATOM     92  N   CYS    11     -12.934 -13.234   3.159  1.00  0.00    -0.228 NA
ATOM     93  O   GLY    10     -14.326 -14.726   4.123  1.00  0.00    -0.268 OA
BRANCH  92  94
ATOM     94  CA  CYS    11     -13.906 -12.187   2.771  1.00  0.00     0.198 C 
BRANCH  94  95
ATOM     95  C   CYS    11     -13.855 -12.032   1.238  1.00  0.00     0.275 C 
ATOM     96  O   CYS    11     -14.608 -12.708   0.546  1.00  0.00    -0.268 OA
ATOM     97  N   GLY    12     -12.851 -11.313   0.759  1.00  0.00    -0.225 NA
BRANCH  97  98
ATOM     98  CA  GLY    12     -12.647 -11.080  -0.679  1.00  0.00     0.226 C 
BRANCH  98  99
ATOM     99  C   GLY    12     -11.421 -11.909  -1.128  1.00  0.00     0.211 C 
ATOM    100  O1  GLY    12     -10.291 -11.395  -0.932  1.00  0.00    -0.646 OA
ATOM    101  O2  GLY    12     -11.630 -13.035  -1.617  1.00  0.00    -0.646 OA
ENDBRANCH  98  99
ENDBRANCH  97  98
ENDBRANCH  94  95
BRANCH  94 102
ATOM    102  CB  CYS    11     -13.476 -10.835   3.336  1.00  0.00     0.103 C 
ATOM    103  SG  CYS    11     -14.819  -9.763   3.977  1.00  0.00    -0.080 SA
ENDBRANCH  94 102
ENDBRANCH  92  94
ENDBRANCH  90  91
ENDBRANCH  89  90
ENDBRANCH  76  87
ENDBRANCH  74  76
ENDBRANCH  65  73
ENDBRANCH  63  65
ENDBRANCH  61  62
BRANCH  61 104
ATOM    104  CB  ASN     7      -3.285 -14.848   9.236  1.00  0.00     0.126 C 
BRANCH 104 105
ATOM    105  CG  ASN     7      -3.064 -14.040  10.528  1.00  0.00     0.276 C 
ATOM    106  ND2 ASN     7      -3.173 -14.711  11.652  1.00  0.00    -0.107 N 
ATOM    107  OD1 ASN     7      -2.953 -12.822  10.586  1.00  0.00    -0.269 OA
ENDBRANCH 104 105
ENDBRANCH  61 104
ENDBRANCH  59  61
ENDBRANCH   1  58
TORSDOF 42
ENDMDL
MODEL 8
REMARK VINA RESULT:      -5.2      4.584     11.837
REMARK WARNING: 32 MAX_TORS EXCEEDED!!!
REMARK  42 active torsions:
REMARK  status: ('A' for Active; 'I' for Inactive)
REMARK    1  A    between atoms: CA_2  and  CB_3 
REMARK    2  A    between atoms: CA_2  and  C_11 
REMARK    3  A    between atoms: CB_3  and  CG_4 
REMARK       I    between atoms: C_11  and  N_13 
REMARK    4  A    between atoms: N_13  and  CA_14 
REMARK    5  A    between atoms: CA_14  and  CB_15 
REMARK    6  A    between atoms: CA_14  and  C_19 
REMARK    7  A    between atoms: CB_15  and  CG_16 
REMARK       I    between atoms: C_19  and  N_21 
REMARK    8  A    between atoms: CA_22  and  C_26 
REMARK       I    between atoms: C_26  and  N_28 
REMARK    9  A    between atoms: N_28  and  CA_29 
REMARK   10  A    between atoms: CA_29  and  C_35 
REMARK   11  A    between atoms: CA_29  and  CB_30 
REMARK   12  A    between atoms: CB_30  and  CG_31 
REMARK   13  A    between atoms: CG_31  and  CD_32 
REMARK       I    between atoms: C_35  and  N_37 
REMARK   14  A    between atoms: N_37  and  CA_38 
REMARK   15  A    between atoms: CA_38  and  CB_39 
REMARK   16  A    between atoms: CA_38  and  C_47 
REMARK   17  A    between atoms: CB_39  and  CG_40 
REMARK       I    between atoms: C_47  and  N_49 
REMARK   18  A    between atoms: N_49  and  CA_50 
REMARK   19  A    between atoms: CA_50  and  CB_51 
REMARK   20  A    between atoms: CA_50  and  C_58 
REMARK   21  A    between atoms: CB_51  and  CG_52 
REMARK   22  A    between atoms: CG_52  and  CD_53 
REMARK   23  A    between atoms: CD_53  and  NE_54 
REMARK       I    between atoms: C_58  and  N_60 
REMARK   24  A    between atoms: N_60  and  CA_61 
REMARK   25  A    between atoms: CA_61  and  C_66 
REMARK   26  A    between atoms: CA_61  and  CB_62 
REMARK   27  A    between atoms: CB_62  and  CG_63 
REMARK       I    between atoms: C_66  and  N_68 
REMARK   28  A    between atoms: N_68  and  CA_69 
REMARK   29  A    between atoms: CA_69  and  CB_70 
REMARK   30  A    between atoms: CA_69  and  C_77 
REMARK   31  A    between atoms: CB_70  and  CG_71 
REMARK       I    between atoms: C_77  and  N_79 
REMARK   32  A    between atoms: N_79  and  CA_80 
REMARK   33  A    between atoms: CA_80  and  CB_81 
REMARK   34  A    between atoms: CA_80  and  C_91 
REMARK   35  A    between atoms: CB_81  and  CG_82 
REMARK       I    between atoms: C_91  and  N_93 
REMARK   36  A    between atoms: N_93  and  CA_94 
REMARK   37  A    between atoms: CA_94  and  C_95 
REMARK       I    between atoms: C_95  and  N_97 
REMARK   38  A    between atoms: N_97  and  CA_98 
REMARK   39  A    between atoms: CA_98  and  C_101 
REMARK   40  A    between atoms: CA_98  and  CB_99 
REMARK       I    between atoms: C_101  and  N_103 
REMARK   41  A    between atoms: N_103  and  CA_104 
REMARK   42  A    between atoms: CA_104  and  C_105 
ROOT
ATOM      1  CA  ARG     6      -4.787 -20.381   6.284  1.00  0.00     0.186 C 
ENDROOT
BRANCH   1   2
ATOM      2  N   ARG     6      -4.956 -21.266   5.108  1.00  0.00    -0.229 NA
ATOM      3  C   TYR     5      -3.915 -21.742   4.412  1.00  0.00     0.275 C 
ATOM      4  O   TYR     5      -2.749 -21.497   4.722  1.00  0.00    -0.268 OA
BRANCH   3   5
ATOM      5  CA  TYR     5      -4.227 -22.710   3.259  1.00  0.00     0.191 C 
BRANCH   5   6
ATOM      6  N   TYR     5      -5.615 -22.590   2.743  1.00  0.00    -0.228 NA
ATOM      7  C   GLU     4      -6.585 -23.473   3.031  1.00  0.00     0.274 C 
ATOM      8  O   GLU     4      -6.439 -24.368   3.853  1.00  0.00    -0.268 OA
BRANCH   7   9
ATOM      9  CA  GLU     4      -7.997 -23.117   2.526  1.00  0.00     0.187 C 
BRANCH   9  10
ATOM     10  CB  GLU     4      -8.977 -23.065   3.709  1.00  0.00     0.045 C 
BRANCH  10  11
ATOM     11  CG  GLU     4      -9.068 -21.720   4.463  1.00  0.00     0.100 C 
BRANCH  11  12
ATOM     12  CD  GLU     4     -10.214 -21.641   5.471  1.00  0.00     0.185 C 
ATOM     13  OE1 GLU     4     -11.379 -21.841   5.039  1.00  0.00    -0.647 OA
ATOM     14  OE2 GLU     4     -10.016 -20.950   6.491  1.00  0.00    -0.647 OA
ENDBRANCH  11  12
ENDBRANCH  10  11
ENDBRANCH   9  10
BRANCH   9  15
ATOM     15  N   GLU     4      -8.516 -24.070   1.526  1.00  0.00    -0.229 NA
ATOM     16  C   PRO     3      -8.854 -25.341   1.703  1.00  0.00     0.272 C 
ATOM     17  O   PRO     3      -9.137 -25.819   2.803  1.00  0.00    -0.269 OA
BRANCH  16  18
ATOM     18  CA  PRO     3      -9.360 -26.063   0.452  1.00  0.00     0.165 C 
ATOM     19  N   PRO     3      -8.745 -27.385   0.205  1.00  0.00    -0.312 N 
ATOM     20  CD  PRO     3      -9.782 -28.338  -0.266  1.00  0.00     0.105 C 
ATOM     21  C   ASP     2      -7.421 -27.618   0.255  1.00  0.00     0.257 C 
ATOM     22  CG  PRO     3     -11.023 -27.463  -0.501  1.00  0.00     0.027 C 
ATOM     23  CB  PRO     3     -10.863 -26.328   0.506  1.00  0.00     0.034 C 
ATOM     24  O   ASP     2      -6.619 -26.673   0.304  1.00  0.00    -0.270 OA
BRANCH  21  25
ATOM     25  CA  ASP     2      -6.882 -29.021  -0.106  1.00  0.00     0.195 C 
BRANCH  25  26
ATOM     26  CB  ASP     2      -5.599 -29.478   0.635  1.00  0.00     0.132 C 
BRANCH  26  27
ATOM     27  CG  ASP     2      -5.909 -30.667   1.564  1.00  0.00     0.188 C 
ATOM     28  OD2 ASP     2      -4.979 -31.006   2.338  1.00  0.00    -0.647 OA
ATOM     29  OD1 ASP     2      -6.722 -31.522   1.132  1.00  0.00    -0.647 OA
ENDBRANCH  26  27
ENDBRANCH  25  26
BRANCH  25  30
ATOM     30  N   ASP     2      -6.482 -29.113  -1.521  1.00  0.00    -0.228 NA
ATOM     31  C   TYR     1      -7.017 -29.884  -2.439  1.00  0.00     0.289 C 
ATOM     32  O   TYR     1      -8.034 -30.579  -2.350  1.00  0.00    -0.268 OA
BRANCH  31  33
ATOM     33  CA  TYR     1      -6.208 -29.877  -3.732  1.00  0.00     0.385 C 
ATOM     34  N   TYR     1      -6.246 -31.238  -4.295  1.00  0.00     0.626 N 
BRANCH  33  35
ATOM     35  CB  TYR     1      -6.842 -28.844  -4.660  1.00  0.00     0.075 C 
BRANCH  35  36
ATOM     36  CG  TYR     1      -6.914 -27.441  -4.037  1.00  0.00    -0.019 A 
ATOM     37  CD2 TYR     1      -8.130 -26.834  -3.763  1.00  0.00    -0.002 A 
ATOM     38  CE2 TYR     1      -8.169 -25.629  -3.078  1.00  0.00     0.027 A 
ATOM     39  CZ  TYR     1      -6.972 -25.036  -2.677  1.00  0.00     0.131 A 
ATOM     40  CE1 TYR     1      -5.761 -25.627  -2.990  1.00  0.00     0.027 A 
ATOM     41  OH  TYR     1      -6.987 -23.969  -1.853  1.00  0.00    -0.190 OA
ATOM     42  CD1 TYR     1      -5.723 -26.832  -3.675  1.00  0.00    -0.002 A 
ENDBRANCH  35  36
ENDBRANCH  33  35
ENDBRANCH  31  33
ENDBRANCH  25  30
ENDBRANCH  21  25
ENDBRANCH  16  18
ENDBRANCH   9  15
ENDBRANCH   7   9
ENDBRANCH   5   6
BRANCH   5  43
ATOM     43  CB  TYR     5      -3.219 -22.538   2.110  1.00  0.00     0.060 C 
BRANCH  43  44
ATOM     44  CG  TYR     5      -2.544 -23.865   1.723  1.00  0.00    -0.020 A 
ATOM     45  CD2 TYR     5      -3.275 -24.883   1.126  1.00  0.00    -0.002 A 
ATOM     46  CE2 TYR     5      -2.654 -26.077   0.773  1.00  0.00     0.027 A 
ATOM     47  CZ  TYR     5      -1.300 -26.253   1.017  1.00  0.00     0.131 A 
ATOM     48  CE1 TYR     5      -0.557 -25.231   1.598  1.00  0.00     0.027 A 
ATOM     49  OH  TYR     5      -0.721 -27.454   0.807  1.00  0.00    -0.190 OA
ATOM     50  CD1 TYR     5      -1.184 -24.039   1.959  1.00  0.00    -0.002 A 
ENDBRANCH  43  44
ENDBRANCH   5  43
ENDBRANCH   3   5
ENDBRANCH   1   2
BRANCH   1  51
ATOM     51  CB  ARG     6      -6.014 -19.517   6.558  1.00  0.00     0.036 C 
BRANCH  51  52
ATOM     52  CG  ARG     6      -5.681 -18.053   6.857  1.00  0.00     0.029 C 
BRANCH  52  53
ATOM     53  CD  ARG     6      -6.952 -17.278   7.194  1.00  0.00     0.145 C 
BRANCH  53  54
ATOM     54  NE  ARG     6      -7.235 -16.259   6.170  1.00  0.00    -0.083 NA
ATOM     55  CZ  ARG     6      -7.236 -14.927   6.372  1.00  0.00     0.782 C 
ATOM     56  NH2 ARG     6      -7.590 -14.093   5.392  1.00  0.00     0.063 N 
ATOM     57  NH1 ARG     6      -6.968 -14.431   7.575  1.00  0.00     0.063 N 
ENDBRANCH  53  54
ENDBRANCH  52  53
ENDBRANCH  51  52
ENDBRANCH   1  51
BRANCH   1  58
ATOM     58  C   ARG     6      -4.506 -21.164   7.573  1.00  0.00     0.274 C 
ATOM     59  N   ASN     7      -5.126 -22.336   7.683  1.00  0.00    -0.228 NA
ATOM     60  O   ARG     6      -3.748 -20.682   8.416  1.00  0.00    -0.268 OA
BRANCH  59  61
ATOM     61  CA  ASN     7      -4.903 -23.273   8.803  1.00  0.00     0.196 C 
BRANCH  61  62
ATOM     62  C   ASN     7      -3.803 -24.300   8.474  1.00  0.00     0.275 C 
ATOM     63  N   PHE     8      -3.149 -24.138   7.314  1.00  0.00    -0.228 NA
ATOM     64  O   ASN     7      -3.335 -24.928   9.403  1.00  0.00    -0.268 OA
BRANCH  63  65
ATOM     65  CA  PHE     8      -2.005 -24.968   6.862  1.00  0.00     0.191 C 
BRANCH  65  66
ATOM     66  CB  PHE     8      -1.998 -24.981   5.327  1.00  0.00     0.060 C 
BRANCH  66  67
ATOM     67  CG  PHE     8      -2.271 -26.362   4.701  1.00  0.00    -0.020 A 
ATOM     68  CD1 PHE     8      -3.553 -26.691   4.281  1.00  0.00    -0.004 A 
ATOM     69  CE1 PHE     8      -3.820 -27.976   3.810  1.00  0.00    -0.000 A 
ATOM     70  CZ  PHE     8      -2.801 -28.912   3.748  1.00  0.00    -0.000 A 
ATOM     71  CE2 PHE     8      -1.513 -28.581   4.156  1.00  0.00    -0.000 A 
ATOM     72  CD2 PHE     8      -1.245 -27.296   4.627  1.00  0.00    -0.004 A 
ENDBRANCH  66  67
ENDBRANCH  65  66
BRANCH  65  73
ATOM     73  C   PHE     8      -0.631 -24.554   7.436  1.00  0.00     0.275 C 
ATOM     74  N   TRP     9      -0.098 -23.433   6.948  1.00  0.00    -0.228 NA
ATOM     75  O   PHE     8       0.038 -25.343   8.108  1.00  0.00    -0.268 OA
BRANCH  74  76
ATOM     76  CA  TRP     9       1.154 -22.854   7.495  1.00  0.00     0.191 C 
BRANCH  76  77
ATOM     77  CB  TRP     9       2.267 -22.996   6.444  1.00  0.00     0.062 C 
BRANCH  77  78
ATOM     78  CG  TRP     9       2.985 -24.344   6.507  1.00  0.00     0.001 A 
ATOM     79  CD1 TRP     9       4.052 -24.626   7.250  1.00  0.00     0.095 A 
ATOM     80  NE1 TRP     9       4.587 -25.772   6.848  1.00  0.00    -0.244 NA
ATOM     81  CE2 TRP     9       3.871 -26.269   5.850  1.00  0.00     0.081 A 
ATOM     82  CD2 TRP     9       2.842 -25.379   5.589  1.00  0.00     0.015 A 
ATOM     83  CZ2 TRP     9       4.042 -27.380   5.025  1.00  0.00     0.019 A 
ATOM     84  CE3 TRP     9       1.992 -25.572   4.510  1.00  0.00     0.001 A 
ATOM     85  CZ3 TRP     9       2.169 -26.672   3.678  1.00  0.00     0.000 A 
ATOM     86  CH2 TRP     9       3.186 -27.584   3.952  1.00  0.00     0.002 A 
ENDBRANCH  77  78
ENDBRANCH  76  77
BRANCH  76  87
ATOM     87  C   TRP     9       1.023 -21.396   7.992  1.00  0.00     0.275 C 
ATOM     88  O   TRP     9      -0.069 -20.835   8.017  1.00  0.00    -0.268 OA
ATOM     89  N   GLY    10       2.131 -20.837   8.475  1.00  0.00    -0.226 NA
BRANCH  89  90
ATOM     90  CA  GLY    10       2.199 -19.461   9.039  1.00  0.00     0.218 C 
BRANCH  90  91
ATOM     91  C   GLY    10       2.755 -18.370   8.110  1.00  0.00     0.277 C 
ATOM     92  N   CYS    11       3.997 -18.579   7.675  1.00  0.00    -0.228 NA
ATOM     93  O   GLY    10       2.144 -17.320   7.946  1.00  0.00    -0.268 OA
BRANCH  92  94
ATOM     94  CA  CYS    11       4.768 -17.710   6.757  1.00  0.00     0.198 C 
BRANCH  94  95
ATOM     95  C   CYS    11       6.267 -17.931   7.037  1.00  0.00     0.275 C 
ATOM     96  O   CYS    11       6.781 -17.378   8.004  1.00  0.00    -0.268 OA
ATOM     97  N   GLY    12       6.951 -18.553   6.088  1.00  0.00    -0.225 NA
BRANCH  97  98
ATOM     98  CA  GLY    12       8.392 -18.830   6.188  1.00  0.00     0.226 C 
BRANCH  98  99
ATOM     99  C   GLY    12       9.142 -17.760   5.361  1.00  0.00     0.211 C 
ATOM    100  O1  GLY    12       8.561 -17.333   4.332  1.00  0.00    -0.646 OA
ATOM    101  O2  GLY    12      10.246 -17.368   5.784  1.00  0.00    -0.646 OA
ENDBRANCH  98  99
ENDBRANCH  97  98
ENDBRANCH  94  95
BRANCH  94 102
ATOM    102  CB  CYS    11       4.501 -16.241   7.076  1.00  0.00     0.103 C 
ATOM    103  SG  CYS    11       3.934 -15.200   5.676  1.00  0.00    -0.080 SA
ENDBRANCH  94 102
ENDBRANCH  92  94
ENDBRANCH  90  91
ENDBRANCH  89  90
ENDBRANCH  76  87
ENDBRANCH  74  76
ENDBRANCH  65  73
ENDBRANCH  63  65
ENDBRANCH  61  62
BRANCH  61 104
ATOM    104  CB  ASN     7      -6.205 -23.978   9.205  1.00  0.00     0.126 C 
BRANCH 104 105
ATOM    105  CG  ASN     7      -7.481 -23.135   9.025  1.00  0.00     0.276 C 
ATOM    106  ND2 ASN     7      -8.279 -23.500   8.048  1.00  0.00    -0.107 N 
ATOM    107  OD1 ASN     7      -7.717 -22.085   9.609  1.00  0.00    -0.269 OA
ENDBRANCH 104 105
ENDBRANCH  61 104
ENDBRANCH  59  61
ENDBRANCH   1  58
TORSDOF 42
ENDMDL
MODEL 9
REMARK VINA RESULT:      -5.1      4.670     11.292
REMARK WARNING: 32 MAX_TORS EXCEEDED!!!
REMARK  42 active torsions:
REMARK  status: ('A' for Active; 'I' for Inactive)
REMARK    1  A    between atoms: CA_2  and  CB_3 
REMARK    2  A    between atoms: CA_2  and  C_11 
REMARK    3  A    between atoms: CB_3  and  CG_4 
REMARK       I    between atoms: C_11  and  N_13 
REMARK    4  A    between atoms: N_13  and  CA_14 
REMARK    5  A    between atoms: CA_14  and  CB_15 
REMARK    6  A    between atoms: CA_14  and  C_19 
REMARK    7  A    between atoms: CB_15  and  CG_16 
REMARK       I    between atoms: C_19  and  N_21 
REMARK    8  A    between atoms: CA_22  and  C_26 
REMARK       I    between atoms: C_26  and  N_28 
REMARK    9  A    between atoms: N_28  and  CA_29 
REMARK   10  A    between atoms: CA_29  and  C_35 
REMARK   11  A    between atoms: CA_29  and  CB_30 
REMARK   12  A    between atoms: CB_30  and  CG_31 
REMARK   13  A    between atoms: CG_31  and  CD_32 
REMARK       I    between atoms: C_35  and  N_37 
REMARK   14  A    between atoms: N_37  and  CA_38 
REMARK   15  A    between atoms: CA_38  and  CB_39 
REMARK   16  A    between atoms: CA_38  and  C_47 
REMARK   17  A    between atoms: CB_39  and  CG_40 
REMARK       I    between atoms: C_47  and  N_49 
REMARK   18  A    between atoms: N_49  and  CA_50 
REMARK   19  A    between atoms: CA_50  and  CB_51 
REMARK   20  A    between atoms: CA_50  and  C_58 
REMARK   21  A    between atoms: CB_51  and  CG_52 
REMARK   22  A    between atoms: CG_52  and  CD_53 
REMARK   23  A    between atoms: CD_53  and  NE_54 
REMARK       I    between atoms: C_58  and  N_60 
REMARK   24  A    between atoms: N_60  and  CA_61 
REMARK   25  A    between atoms: CA_61  and  C_66 
REMARK   26  A    between atoms: CA_61  and  CB_62 
REMARK   27  A    between atoms: CB_62  and  CG_63 
REMARK       I    between atoms: C_66  and  N_68 
REMARK   28  A    between atoms: N_68  and  CA_69 
REMARK   29  A    between atoms: CA_69  and  CB_70 
REMARK   30  A    between atoms: CA_69  and  C_77 
REMARK   31  A    between atoms: CB_70  and  CG_71 
REMARK       I    between atoms: C_77  and  N_79 
REMARK   32  A    between atoms: N_79  and  CA_80 
REMARK   33  A    between atoms: CA_80  and  CB_81 
REMARK   34  A    between atoms: CA_80  and  C_91 
REMARK   35  A    between atoms: CB_81  and  CG_82 
REMARK       I    between atoms: C_91  and  N_93 
REMARK   36  A    between atoms: N_93  and  CA_94 
REMARK   37  A    between atoms: CA_94  and  C_95 
REMARK       I    between atoms: C_95  and  N_97 
REMARK   38  A    between atoms: N_97  and  CA_98 
REMARK   39  A    between atoms: CA_98  and  C_101 
REMARK   40  A    between atoms: CA_98  and  CB_99 
REMARK       I    between atoms: C_101  and  N_103 
REMARK   41  A    between atoms: N_103  and  CA_104 
REMARK   42  A    between atoms: CA_104  and  C_105 
ROOT
ATOM      1  CA  ARG     6      -4.655 -20.715   6.063  1.00  0.00     0.186 C 
ENDROOT
BRANCH   1   2
ATOM      2  N   ARG     6      -4.940 -21.538   4.864  1.00  0.00    -0.229 NA
ATOM      3  C   TYR     5      -3.969 -22.029   4.083  1.00  0.00     0.275 C 
ATOM      4  O   TYR     5      -2.775 -21.853   4.327  1.00  0.00    -0.268 OA
BRANCH   3   5
ATOM      5  CA  TYR     5      -4.398 -22.928   2.913  1.00  0.00     0.191 C 
BRANCH   5   6
ATOM      6  N   TYR     5      -5.834 -22.791   2.555  1.00  0.00    -0.228 NA
ATOM      7  C   GLU     4      -6.757 -23.721   2.851  1.00  0.00     0.274 C 
ATOM      8  O   GLU     4      -6.514 -24.689   3.560  1.00  0.00    -0.268 OA
BRANCH   7   9
ATOM      9  CA  GLU     4      -8.219 -23.350   2.531  1.00  0.00     0.187 C 
BRANCH   9  10
ATOM     10  CB  GLU     4      -9.042 -23.307   3.828  1.00  0.00     0.045 C 
BRANCH  10  11
ATOM     11  CG  GLU     4      -8.545 -22.335   4.921  1.00  0.00     0.100 C 
BRANCH  11  12
ATOM     12  CD  GLU     4      -8.859 -22.779   6.349  1.00  0.00     0.185 C 
ATOM     13  OE1 GLU     4      -8.151 -22.299   7.272  1.00  0.00    -0.647 OA
ATOM     14  OE2 GLU     4      -9.427 -23.882   6.481  1.00  0.00    -0.647 OA
ENDBRANCH  11  12
ENDBRANCH  10  11
ENDBRANCH   9  10
BRANCH   9  15
ATOM     15  N   GLU     4      -8.866 -24.288   1.593  1.00  0.00    -0.229 NA
ATOM     16  C   PRO     3      -9.202 -25.556   1.803  1.00  0.00     0.272 C 
ATOM     17  O   PRO     3      -9.364 -26.036   2.926  1.00  0.00    -0.269 OA
BRANCH  16  18
ATOM     18  CA  PRO     3      -9.862 -26.261   0.616  1.00  0.00     0.165 C 
ATOM     19  N   PRO     3      -9.228 -27.536   0.220  1.00  0.00    -0.312 N 
ATOM     20  CD  PRO     3     -10.277 -28.529  -0.125  1.00  0.00     0.105 C 
ATOM     21  C   ASP     2      -7.902 -27.696   0.053  1.00  0.00     0.257 C 
ATOM     22  CG  PRO     3     -11.582 -27.718  -0.127  1.00  0.00     0.027 C 
ATOM     23  CB  PRO     3     -11.323 -26.611   0.891  1.00  0.00     0.034 C 
ATOM     24  O   ASP     2      -7.152 -26.709   0.017  1.00  0.00    -0.270 OA
BRANCH  21  25
ATOM     25  CA  ASP     2      -7.357 -29.053  -0.448  1.00  0.00     0.195 C 
BRANCH  25  26
ATOM     26  CB  ASP     2      -6.157 -29.645   0.335  1.00  0.00     0.132 C 
BRANCH  26  27
ATOM     27  CG  ASP     2      -6.654 -30.547   1.480  1.00  0.00     0.188 C 
ATOM     28  OD2 ASP     2      -6.995 -29.949   2.532  1.00  0.00    -0.647 OA
ATOM     29  OD1 ASP     2      -6.172 -31.706   1.535  1.00  0.00    -0.647 OA
ENDBRANCH  26  27
ENDBRANCH  25  26
BRANCH  25  30
ATOM     30  N   ASP     2      -6.830 -28.966  -1.820  1.00  0.00    -0.228 NA
ATOM     31  C   TYR     1      -7.404 -29.415  -2.912  1.00  0.00     0.289 C 
ATOM     32  O   TYR     1      -8.545 -29.872  -3.038  1.00  0.00    -0.268 OA
BRANCH  31  33
ATOM     33  CA  TYR     1      -6.473 -29.345  -4.118  1.00  0.00     0.385 C 
ATOM     34  N   TYR     1      -7.276 -29.606  -5.324  1.00  0.00     0.626 N 
BRANCH  33  35
ATOM     35  CB  TYR     1      -5.841 -27.955  -4.125  1.00  0.00     0.075 C 
BRANCH  35  36
ATOM     36  CG  TYR     1      -6.763 -26.880  -4.721  1.00  0.00    -0.019 A 
ATOM     37  CD2 TYR     1      -7.508 -26.037  -3.911  1.00  0.00    -0.002 A 
ATOM     38  CE2 TYR     1      -8.225 -24.989  -4.467  1.00  0.00     0.027 A 
ATOM     39  CZ  TYR     1      -8.193 -24.800  -5.848  1.00  0.00     0.131 A 
ATOM     40  CE1 TYR     1      -7.481 -25.669  -6.655  1.00  0.00     0.027 A 
ATOM     41  OH  TYR     1      -8.723 -23.687  -6.394  1.00  0.00    -0.190 OA
ATOM     42  CD1 TYR     1      -6.763 -26.717  -6.098  1.00  0.00    -0.002 A 
ENDBRANCH  35  36
ENDBRANCH  33  35
ENDBRANCH  31  33
ENDBRANCH  25  30
ENDBRANCH  21  25
ENDBRANCH  16  18
ENDBRANCH   9  15
ENDBRANCH   7   9
ENDBRANCH   5   6
BRANCH   5  43
ATOM     43  CB  TYR     5      -3.520 -22.677   1.675  1.00  0.00     0.060 C 
BRANCH  43  44
ATOM     44  CG  TYR     5      -2.648 -23.894   1.322  1.00  0.00    -0.020 A 
ATOM     45  CD2 TYR     5      -1.288 -23.895   1.607  1.00  0.00    -0.002 A 
ATOM     46  CE2 TYR     5      -0.508 -25.003   1.291  1.00  0.00     0.027 A 
ATOM     47  CZ  TYR     5      -1.088 -26.110   0.690  1.00  0.00     0.131 A 
ATOM     48  CE1 TYR     5      -2.451 -26.123   0.417  1.00  0.00     0.027 A 
ATOM     49  OH  TYR     5      -0.316 -27.129   0.254  1.00  0.00    -0.190 OA
ATOM     50  CD1 TYR     5      -3.229 -25.008   0.727  1.00  0.00    -0.002 A 
ENDBRANCH  43  44
ENDBRANCH   5  43
ENDBRANCH   3   5
ENDBRANCH   1   2
BRANCH   1  51
ATOM     51  CB  ARG     6      -5.834 -19.841   6.477  1.00  0.00     0.036 C 
BRANCH  51  52
ATOM     52  CG  ARG     6      -5.441 -18.406   6.834  1.00  0.00     0.029 C 
BRANCH  52  53
ATOM     53  CD  ARG     6      -6.652 -17.636   7.354  1.00  0.00     0.145 C 
BRANCH  53  54
ATOM     54  NE  ARG     6      -7.131 -16.668   6.354  1.00  0.00    -0.083 NA
ATOM     55  CZ  ARG     6      -7.128 -15.329   6.498  1.00  0.00     0.782 C 
ATOM     56  NH2 ARG     6      -7.665 -14.545   5.561  1.00  0.00     0.063 N 
ATOM     57  NH1 ARG     6      -6.668 -14.776   7.615  1.00  0.00     0.063 N 
ENDBRANCH  53  54
ENDBRANCH  52  53
ENDBRANCH  51  52
ENDBRANCH   1  51
BRANCH   1  58
ATOM     58  C   ARG     6      -4.289 -21.567   7.285  1.00  0.00     0.274 C 
ATOM     59  N   ASN     7      -4.814 -22.789   7.315  1.00  0.00    -0.228 NA
ATOM     60  O   ARG     6      -3.554 -21.091   8.152  1.00  0.00    -0.268 OA
BRANCH  59  61
ATOM     61  CA  ASN     7      -4.499 -23.786   8.359  1.00  0.00     0.196 C 
BRANCH  61  62
ATOM     62  C   ASN     7      -3.727 -24.988   7.781  1.00  0.00     0.275 C 
ATOM     63  N   PHE     8      -2.626 -24.715   7.064  1.00  0.00    -0.228 NA
ATOM     64  O   ASN     7      -3.912 -26.069   8.305  1.00  0.00    -0.268 OA
BRANCH  63  65
ATOM     65  CA  PHE     8      -1.707 -25.733   6.501  1.00  0.00     0.191 C 
BRANCH  65  66
ATOM     66  CB  PHE     8      -1.656 -25.545   4.979  1.00  0.00     0.060 C 
BRANCH  66  67
ATOM     67  CG  PHE     8      -2.303 -26.688   4.174  1.00  0.00    -0.020 A 
ATOM     68  CD1 PHE     8      -3.666 -26.666   3.913  1.00  0.00    -0.004 A 
ATOM     69  CE1 PHE     8      -4.268 -27.750   3.274  1.00  0.00    -0.000 A 
ATOM     70  CZ  PHE     8      -3.499 -28.836   2.890  1.00  0.00    -0.000 A 
ATOM     71  CE2 PHE     8      -2.130 -28.855   3.140  1.00  0.00    -0.000 A 
ATOM     72  CD2 PHE     8      -1.528 -27.771   3.778  1.00  0.00    -0.004 A 
ENDBRANCH  66  67
ENDBRANCH  65  66
BRANCH  65  73
ATOM     73  C   PHE     8      -0.291 -25.749   7.122  1.00  0.00     0.275 C 
ATOM     74  N   TRP     9       0.448 -24.654   6.943  1.00  0.00    -0.228 NA
ATOM     75  O   PHE     8       0.209 -26.800   7.531  1.00  0.00    -0.268 OA
BRANCH  74  76
ATOM     76  CA  TRP     9       1.774 -24.484   7.587  1.00  0.00     0.191 C 
BRANCH  76  77
ATOM     77  CB  TRP     9       2.840 -24.319   6.492  1.00  0.00     0.062 C 
BRANCH  77  78
ATOM     78  CG  TRP     9       3.473 -25.642   6.064  1.00  0.00     0.001 A 
ATOM     79  CD1 TRP     9       4.658 -26.103   6.454  1.00  0.00     0.095 A 
ATOM     80  NE1 TRP     9       5.023 -27.115   5.677  1.00  0.00    -0.244 NA
ATOM     81  CE2 TRP     9       4.078 -27.348   4.779  1.00  0.00     0.081 A 
ATOM     82  CD2 TRP     9       3.071 -26.418   4.981  1.00  0.00     0.015 A 
ATOM     83  CZ2 TRP     9       3.998 -28.220   3.694  1.00  0.00     0.019 A 
ATOM     84  CE3 TRP     9       1.995 -26.335   4.110  1.00  0.00     0.001 A 
ATOM     85  CZ3 TRP     9       1.919 -27.195   3.020  1.00  0.00     0.000 A 
ATOM     86  CH2 TRP     9       2.916 -28.150   2.828  1.00  0.00     0.002 A 
ENDBRANCH  77  78
ENDBRANCH  76  77
BRANCH  76  87
ATOM     87  C   TRP     9       1.841 -23.341   8.625  1.00  0.00     0.275 C 
ATOM     88  O   TRP     9       1.021 -23.267   9.535  1.00  0.00    -0.268 OA
ATOM     89  N   GLY    10       2.886 -22.520   8.529  1.00  0.00    -0.226 NA
BRANCH  89  90
ATOM     90  CA  GLY    10       3.151 -21.387   9.458  1.00  0.00     0.218 C 
BRANCH  90  91
ATOM     91  C   GLY    10       2.803 -19.983   8.939  1.00  0.00     0.277 C 
ATOM     92  N   CYS    11       2.824 -19.021   9.860  1.00  0.00    -0.228 NA
ATOM     93  O   GLY    10       2.374 -19.827   7.801  1.00  0.00    -0.268 OA
BRANCH  92  94
ATOM     94  CA  CYS    11       2.555 -17.582   9.639  1.00  0.00     0.198 C 
BRANCH  94  95
ATOM     95  C   CYS    11       1.063 -17.325   9.928  1.00  0.00     0.275 C 
ATOM     96  O   CYS    11       0.279 -18.268   9.900  1.00  0.00    -0.268 OA
ATOM     97  N   GLY    12       0.693 -16.054   9.994  1.00  0.00    -0.225 NA
BRANCH  97  98
ATOM     98  CA  GLY    12      -0.694 -15.635  10.246  1.00  0.00     0.226 C 
BRANCH  98  99
ATOM     99  C   GLY    12      -1.196 -14.870   8.999  1.00  0.00     0.211 C 
ATOM    100  O1  GLY    12      -1.958 -13.892   9.206  1.00  0.00    -0.646 OA
ATOM    101  O2  GLY    12      -0.788 -15.246   7.885  1.00  0.00    -0.646 OA
ENDBRANCH  98  99
ENDBRANCH  97  98
ENDBRANCH  94  95
BRANCH  94 102
ATOM    102  CB  CYS    11       2.756 -17.230   8.167  1.00  0.00     0.103 C 
ATOM    103  SG  CYS    11       4.461 -16.770   7.671  1.00  0.00    -0.080 SA
ENDBRANCH  94 102
ENDBRANCH  92  94
ENDBRANCH  90  91
ENDBRANCH  89  90
ENDBRANCH  76  87
ENDBRANCH  74  76
ENDBRANCH  65  73
ENDBRANCH  63  65
ENDBRANCH  61  62
BRANCH  61 104
ATOM    104  CB  ASN     7      -5.767 -24.251   9.086  1.00  0.00     0.126 C 
BRANCH 104 105
ATOM    105  CG  ASN     7      -5.948 -23.676  10.503  1.00  0.00     0.276 C 
ATOM    106  ND2 ASN     7      -5.017 -22.845  10.912  1.00  0.00    -0.107 N 
ATOM    107  OD1 ASN     7      -6.790 -24.049  11.311  1.00  0.00    -0.269 OA
ENDBRANCH 104 105
ENDBRANCH  61 104
ENDBRANCH  59  61
ENDBRANCH   1  58
TORSDOF 42
ENDMDL
