MODEL 1
REMARK VINA RESULT:      -5.9      0.000      0.000
REMARK WARNING: 32 MAX_TORS EXCEEDED!!!
REMARK  33 active torsions:
REMARK  status: ('A' for Active; 'I' for Inactive)
REMARK    1  A    between atoms: CA_2  and  C_8 
REMARK    2  A    between atoms: CA_2  and  CB_3 
REMARK    3  A    between atoms: CB_3  and  CG_4 
REMARK    4  A    between atoms: CG_4  and  CD_5 
REMARK       I    between atoms: C_8  and  N_10 
REMARK    5  A    between atoms: N_10  and  CA_11 
REMARK    6  A    between atoms: CA_11  and  C_12 
REMARK       I    between atoms: C_12  and  N_14 
REMARK    7  A    between atoms: N_14  and  CA_15 
REMARK    8  A    between atoms: CA_15  and  C_20 
REMARK    9  A    between atoms: CA_15  and  CB_16 
REMARK   10  A    between atoms: CB_16  and  CG_17 
REMARK       I    between atoms: C_20  and  N_22 
REMARK   11  A    between atoms: N_22  and  CA_23 
REMARK   12  A    between atoms: CA_23  and  CB_24 
REMARK   13  A    between atoms: CA_23  and  C_28 
REMARK   14  A    between atoms: CB_24  and  CG_25 
REMARK       I    between atoms: C_28  and  N_30 
REMARK   15  A    between atoms: N_30  and  CA_31 
REMARK   16  A    between atoms: CA_31  and  CB_32 
REMARK   17  A    between atoms: CA_31  and  C_39 
REMARK   18  A    between atoms: CB_32  and  CG_33 
REMARK   19  A    between atoms: CG_33  and  CD_34 
REMARK   20  A    between atoms: CD_34  and  NE_35 
REMARK       I    between atoms: C_39  and  N_41 
REMARK   21  A    between atoms: CA_42  and  C_46 
REMARK       I    between atoms: C_46  and  N_48 
REMARK   22  A    between atoms: N_48  and  CA_49 
REMARK   23  A    between atoms: CA_49  and  C_52 
REMARK   24  A    between atoms: CA_49  and  CB_50 
REMARK       I    between atoms: C_52  and  N_54 
REMARK   25  A    between atoms: N_54  and  CA_55 
REMARK   26  A    between atoms: CA_55  and  C_56 
REMARK       I    between atoms: C_56  and  N_58 
REMARK   27  A    between atoms: N_58  and  CA_59 
REMARK   28  A    between atoms: CA_59  and  C_60 
REMARK       I    between atoms: C_60  and  N_62 
REMARK   29  A    between atoms: N_62  and  CA_63 
REMARK   30  A    between atoms: CA_63  and  CB_64 
REMARK   31  A    between atoms: CA_63  and  C_66 
REMARK       I    between atoms: C_66  and  N_68 
REMARK   32  A    between atoms: N_68  and  CA_69 
REMARK   33  A    between atoms: CA_69  and  C_70 
ROOT
ATOM      1  CA  ARG     5      -3.570 -16.100   7.927  1.00  0.00     0.185 C 
ENDROOT
BRANCH   1   2
ATOM      2  N   ARG     5      -2.640 -16.934   7.144  1.00  0.00    -0.229 NA
ATOM      3  C   ASN     4      -1.755 -17.782   7.645  1.00  0.00     0.275 C 
ATOM      4  O   ASN     4      -1.412 -17.805   8.823  1.00  0.00    -0.268 OA
BRANCH   3   5
ATOM      5  CA  ASN     4      -0.944 -18.510   6.553  1.00  0.00     0.196 C 
BRANCH   5   6
ATOM      6  N   ASN     4       0.061 -19.408   7.160  1.00  0.00    -0.228 NA
ATOM      7  C   LEU     3       1.358 -19.114   7.221  1.00  0.00     0.274 C 
ATOM      8  O   LEU     3       1.868 -18.073   6.795  1.00  0.00    -0.268 OA
BRANCH   7   9
ATOM      9  CA  LEU     3       2.220 -20.152   7.938  1.00  0.00     0.186 C 
BRANCH   9  10
ATOM     10  N   LEU     3       3.651 -19.835   7.732  1.00  0.00    -0.229 NA
ATOM     11  C   GLY     2       4.578 -20.773   7.517  1.00  0.00     0.277 C 
ATOM     12  O   GLY     2       4.308 -21.948   7.318  1.00  0.00    -0.268 OA
BRANCH  11  13
ATOM     13  CA  GLY     2       6.028 -20.267   7.360  1.00  0.00     0.218 C 
BRANCH  13  14
ATOM     14  N   GLY     2       6.473 -19.144   8.219  1.00  0.00    -0.226 NA
ATOM     15  C   GLU     1       6.892 -19.334   9.476  1.00  0.00     0.289 C 
ATOM     16  O   GLU     1       7.084 -20.456   9.913  1.00  0.00    -0.268 OA
BRANCH  15  17
ATOM     17  CA  GLU     1       7.218 -18.093  10.349  1.00  0.00     0.381 C 
ATOM     18  N   GLU     1       8.334 -18.306  11.287  1.00  0.00     0.626 N 
BRANCH  17  19
ATOM     19  CB  GLU     1       7.490 -16.894   9.417  1.00  0.00     0.060 C 
BRANCH  19  20
ATOM     20  CG  GLU     1       8.940 -16.491   9.112  1.00  0.00     0.100 C 
BRANCH  20  21
ATOM     21  CD  GLU     1       9.170 -16.176   7.626  1.00  0.00     0.185 C 
ATOM     22  OE1 GLU     1       8.213 -16.299   6.841  1.00  0.00    -0.647 OA
ATOM     23  OE2 GLU     1      10.311 -15.840   7.262  1.00  0.00    -0.647 OA
ENDBRANCH  20  21
ENDBRANCH  19  20
ENDBRANCH  17  19
ENDBRANCH  15  17
ENDBRANCH  13  14
ENDBRANCH  11  13
ENDBRANCH   9  10
BRANCH   9  24
ATOM     24  CB  LEU     3       1.876 -20.133   9.432  1.00  0.00     0.034 C 
BRANCH  24  25
ATOM     25  CG  LEU     3       1.187 -21.417   9.928  1.00  0.00     0.002 C 
ATOM     26  CD1 LEU     3       1.239 -22.479   8.830  1.00  0.00     0.000 C 
ATOM     27  CD2 LEU     3       1.852 -21.947  11.203  1.00  0.00     0.000 C 
ENDBRANCH  24  25
ENDBRANCH   9  24
ENDBRANCH   7   9
ENDBRANCH   5   6
BRANCH   5  28
ATOM     28  CB  ASN     4      -1.861 -19.303   5.605  1.00  0.00     0.126 C 
BRANCH  28  29
ATOM     29  CG  ASN     4      -2.130 -20.748   6.069  1.00  0.00     0.276 C 
ATOM     30  ND2 ASN     4      -2.877 -20.886   7.132  1.00  0.00    -0.107 N 
ATOM     31  OD1 ASN     4      -1.744 -21.735   5.473  1.00  0.00    -0.269 OA
ENDBRANCH  28  29
ENDBRANCH   5  28
ENDBRANCH   3   5
ENDBRANCH   1   2
BRANCH   1  32
ATOM     32  CB  ARG     5      -3.137 -14.630   7.889  1.00  0.00     0.036 C 
BRANCH  32  33
ATOM     33  CG  ARG     5      -2.905 -14.017   9.270  1.00  0.00     0.029 C 
BRANCH  33  34
ATOM     34  CD  ARG     5      -1.542 -14.455   9.797  1.00  0.00     0.145 C 
BRANCH  34  35
ATOM     35  NE  ARG     5      -0.733 -13.305  10.267  1.00  0.00    -0.083 NA
ATOM     36  CZ  ARG     5      -0.388 -13.083  11.544  1.00  0.00     0.782 C 
ATOM     37  NH2 ARG     5       0.542 -12.168  11.862  1.00  0.00     0.063 N 
ATOM     38  NH1 ARG     5      -0.856 -13.838  12.527  1.00  0.00     0.063 N 
ENDBRANCH  34  35
ENDBRANCH  33  34
ENDBRANCH  32  33
ENDBRANCH   1  32
BRANCH   1  39
ATOM     39  C   ARG     5      -4.992 -16.234   7.352  1.00  0.00     0.256 C 
ATOM     40  O   ARG     5      -5.332 -15.538   6.390  1.00  0.00    -0.270 OA
ATOM     41  N   PRO     6      -5.773 -17.189   7.867  1.00  0.00    -0.312 N 
ATOM     42  CA  PRO     6      -7.173 -17.431   7.454  1.00  0.00     0.165 C 
ATOM     43  CD  PRO     6      -5.330 -18.248   8.800  1.00  0.00     0.105 C 
ATOM     44  CB  PRO     6      -7.670 -18.539   8.384  1.00  0.00     0.034 C 
ATOM     45  CG  PRO     6      -6.404 -19.330   8.678  1.00  0.00     0.027 C 
BRANCH  42  46
ATOM     46  C   PRO     6      -8.030 -16.162   7.605  1.00  0.00     0.272 C 
ATOM     47  N   SER     7      -8.650 -15.666   6.543  1.00  0.00    -0.226 NA
ATOM     48  O   PRO     6      -8.050 -15.555   8.679  1.00  0.00    -0.269 OA
BRANCH  47  49
ATOM     49  CA  SER     7      -8.612 -16.202   5.161  1.00  0.00     0.219 C 
BRANCH  49  50
ATOM     50  C   SER     7      -8.774 -15.092   4.108  1.00  0.00     0.277 C 
ATOM     51  O   SER     7      -8.536 -15.341   2.931  1.00  0.00    -0.268 OA
ATOM     52  N   GLY     8      -9.392 -13.993   4.519  1.00  0.00    -0.226 NA
BRANCH  52  53
ATOM     53  CA  GLY     8      -9.438 -12.759   3.690  1.00  0.00     0.218 C 
BRANCH  53  54
ATOM     54  C   GLY     8      -8.668 -11.522   4.185  1.00  0.00     0.277 C 
ATOM     55  N   GLY     9      -9.393 -10.494   4.648  1.00  0.00    -0.226 NA
ATOM     56  O   GLY     8      -7.448 -11.520   4.186  1.00  0.00    -0.268 OA
BRANCH  55  57
ATOM     57  CA  GLY     9      -8.790  -9.229   5.118  1.00  0.00     0.218 C 
BRANCH  57  58
ATOM     58  C   GLY     9      -9.701  -8.516   6.145  1.00  0.00     0.277 C 
ATOM     59  O   GLY     9     -10.222  -9.169   7.040  1.00  0.00    -0.268 OA
ATOM     60  N   CYS    10     -10.071  -7.252   5.993  1.00  0.00    -0.228 NA
BRANCH  60  61
ATOM     61  CA  CYS    10      -9.748  -6.337   4.871  1.00  0.00     0.198 C 
BRANCH  61  62
ATOM     62  CB  CYS    10     -10.933  -6.139   3.918  1.00  0.00     0.103 C 
ATOM     63  SG  CYS    10     -12.589  -5.907   4.650  1.00  0.00    -0.080 SA
ENDBRANCH  61  62
BRANCH  61  64
ATOM     64  C   CYS    10      -9.370  -4.920   5.310  1.00  0.00     0.275 C 
ATOM     65  O   CYS    10      -9.045  -4.094   4.458  1.00  0.00    -0.268 OA
ATOM     66  N   GLY    11      -9.734  -4.629   6.548  1.00  0.00    -0.225 NA
BRANCH  66  67
ATOM     67  CA  GLY    11      -8.938  -3.725   7.391  1.00  0.00     0.226 C 
BRANCH  67  68
ATOM     68  C   GLY    11      -8.784  -4.469   8.726  1.00  0.00     0.211 C 
ATOM     69  O2  GLY    11      -9.520  -4.069   9.654  1.00  0.00    -0.646 OA
ATOM     70  O1  GLY    11      -8.246  -5.599   8.672  1.00  0.00    -0.646 OA
ENDBRANCH  67  68
ENDBRANCH  66  67
ENDBRANCH  61  64
ENDBRANCH  60  61
ENDBRANCH  57  58
ENDBRANCH  55  57
ENDBRANCH  53  54
ENDBRANCH  52  53
ENDBRANCH  49  50
BRANCH  49  71
ATOM     71  CB  SER     7      -9.725 -17.224   4.920  1.00  0.00     0.216 C 
ATOM     72  OG  SER     7     -10.898 -16.845   5.640  1.00  0.00    -0.218 OA
ENDBRANCH  49  71
ENDBRANCH  47  49
ENDBRANCH  42  46
ENDBRANCH   1  39
TORSDOF 33
ENDMDL
MODEL 2
REMARK VINA RESULT:      -5.7     15.206     20.819
REMARK WARNING: 32 MAX_TORS EXCEEDED!!!
REMARK  33 active torsions:
REMARK  status: ('A' for Active; 'I' for Inactive)
REMARK    1  A    between atoms: CA_2  and  C_8 
REMARK    2  A    between atoms: CA_2  and  CB_3 
REMARK    3  A    between atoms: CB_3  and  CG_4 
REMARK    4  A    between atoms: CG_4  and  CD_5 
REMARK       I    between atoms: C_8  and  N_10 
REMARK    5  A    between atoms: N_10  and  CA_11 
REMARK    6  A    between atoms: CA_11  and  C_12 
REMARK       I    between atoms: C_12  and  N_14 
REMARK    7  A    between atoms: N_14  and  CA_15 
REMARK    8  A    between atoms: CA_15  and  C_20 
REMARK    9  A    between atoms: CA_15  and  CB_16 
REMARK   10  A    between atoms: CB_16  and  CG_17 
REMARK       I    between atoms: C_20  and  N_22 
REMARK   11  A    between atoms: N_22  and  CA_23 
REMARK   12  A    between atoms: CA_23  and  CB_24 
REMARK   13  A    between atoms: CA_23  and  C_28 
REMARK   14  A    between atoms: CB_24  and  CG_25 
REMARK       I    between atoms: C_28  and  N_30 
REMARK   15  A    between atoms: N_30  and  CA_31 
REMARK   16  A    between atoms: CA_31  and  CB_32 
REMARK   17  A    between atoms: CA_31  and  C_39 
REMARK   18  A    between atoms: CB_32  and  CG_33 
REMARK   19  A    between atoms: CG_33  and  CD_34 
REMARK   20  A    between atoms: CD_34  and  NE_35 
REMARK       I    between atoms: C_39  and  N_41 
REMARK   21  A    between atoms: CA_42  and  C_46 
REMARK       I    between atoms: C_46  and  N_48 
REMARK   22  A    between atoms: N_48  and  CA_49 
REMARK   23  A    between atoms: CA_49  and  C_52 
REMARK   24  A    between atoms: CA_49  and  CB_50 
REMARK       I    between atoms: C_52  and  N_54 
REMARK   25  A    between atoms: N_54  and  CA_55 
REMARK   26  A    between atoms: CA_55  and  C_56 
REMARK       I    between atoms: C_56  and  N_58 
REMARK   27  A    between atoms: N_58  and  CA_59 
REMARK   28  A    between atoms: CA_59  and  C_60 
REMARK       I    between atoms: C_60  and  N_62 
REMARK   29  A    between atoms: N_62  and  CA_63 
REMARK   30  A    between atoms: CA_63  and  CB_64 
REMARK   31  A    between atoms: CA_63  and  C_66 
REMARK       I    between atoms: C_66  and  N_68 
REMARK   32  A    between atoms: N_68  and  CA_69 
REMARK   33  A    between atoms: CA_69  and  C_70 
ROOT
ATOM      1  CA  ARG     5       3.815   0.103  10.486  1.00  0.00     0.185 C 
ENDROOT
BRANCH   1   2
ATOM      2  N   ARG     5       5.198   0.141   9.976  1.00  0.00    -0.229 NA
ATOM      3  C   ASN     4       6.271   0.465  10.680  1.00  0.00     0.275 C 
ATOM      4  O   ASN     4       6.237   1.019  11.774  1.00  0.00    -0.268 OA
BRANCH   3   5
ATOM      5  CA  ASN     4       7.571   0.391   9.852  1.00  0.00     0.196 C 
BRANCH   5   6
ATOM      6  N   ASN     4       8.132   1.742   9.640  1.00  0.00    -0.228 NA
ATOM      7  C   LEU     3       8.018   2.407   8.493  1.00  0.00     0.274 C 
ATOM      8  O   LEU     3       7.435   1.990   7.488  1.00  0.00    -0.268 OA
BRANCH   7   9
ATOM      9  CA  LEU     3       8.622   3.811   8.499  1.00  0.00     0.186 C 
BRANCH   9  10
ATOM     10  N   LEU     3       9.511   3.974   7.327  1.00  0.00    -0.229 NA
ATOM     11  C   GLY     2      10.785   4.360   7.431  1.00  0.00     0.277 C 
ATOM     12  O   GLY     2      11.369   4.461   8.500  1.00  0.00    -0.268 OA
BRANCH  11  13
ATOM     13  CA  GLY     2      11.556   4.515   6.103  1.00  0.00     0.218 C 
BRANCH  13  14
ATOM     14  N   GLY     2      12.833   3.777   5.946  1.00  0.00    -0.226 NA
ATOM     15  C   GLU     1      12.888   2.441   5.972  1.00  0.00     0.289 C 
ATOM     16  O   GLU     1      11.871   1.768   5.959  1.00  0.00    -0.268 OA
BRANCH  15  17
ATOM     17  CA  GLU     1      14.278   1.751   5.931  1.00  0.00     0.381 C 
ATOM     18  N   GLU     1      14.458   0.719   6.968  1.00  0.00     0.626 N 
BRANCH  17  19
ATOM     19  CB  GLU     1      14.495   1.170   4.519  1.00  0.00     0.060 C 
BRANCH  19  20
ATOM     20  CG  GLU     1      14.876   2.111   3.366  1.00  0.00     0.100 C 
BRANCH  20  21
ATOM     21  CD  GLU     1      13.828   2.132   2.243  1.00  0.00     0.185 C 
ATOM     22  OE1 GLU     1      13.053   1.164   2.141  1.00  0.00    -0.647 OA
ATOM     23  OE2 GLU     1      13.816   3.099   1.462  1.00  0.00    -0.647 OA
ENDBRANCH  20  21
ENDBRANCH  19  20
ENDBRANCH  17  19
ENDBRANCH  15  17
ENDBRANCH  13  14
ENDBRANCH  11  13
ENDBRANCH   9  10
BRANCH   9  24
ATOM     24  CB  LEU     3       7.484   4.838   8.457  1.00  0.00     0.034 C 
BRANCH  24  25
ATOM     25  CG  LEU     3       7.909   6.255   8.880  1.00  0.00     0.002 C 
ATOM     26  CD1 LEU     3       6.666   7.121   9.078  1.00  0.00     0.000 C 
ATOM     27  CD2 LEU     3       8.737   6.224  10.169  1.00  0.00     0.000 C 
ENDBRANCH  24  25
ENDBRANCH   9  24
ENDBRANCH   7   9
ENDBRANCH   5   6
BRANCH   5  28
ATOM     28  CB  ASN     4       8.615  -0.519  10.521  1.00  0.00     0.126 C 
BRANCH  28  29
ATOM     29  CG  ASN     4      10.048  -0.308   9.995  1.00  0.00     0.276 C 
ATOM     30  ND2 ASN     4      10.941   0.058  10.876  1.00  0.00    -0.107 N 
ATOM     31  OD1 ASN     4      10.388  -0.523   8.848  1.00  0.00    -0.269 OA
ENDBRANCH  28  29
ENDBRANCH   5  28
ENDBRANCH   3   5
ENDBRANCH   1   2
BRANCH   1  32
ATOM     32  CB  ARG     5       2.855   0.757   9.485  1.00  0.00     0.036 C 
BRANCH  32  33
ATOM     33  CG  ARG     5       3.468   1.925   8.712  1.00  0.00     0.029 C 
BRANCH  33  34
ATOM     34  CD  ARG     5       3.123   3.235   9.414  1.00  0.00     0.145 C 
BRANCH  34  35
ATOM     35  NE  ARG     5       2.122   4.023   8.655  1.00  0.00    -0.083 NA
ATOM     36  CZ  ARG     5       2.193   5.345   8.439  1.00  0.00     0.782 C 
ATOM     37  NH2 ARG     5       1.392   5.946   7.545  1.00  0.00     0.063 N 
ATOM     38  NH1 ARG     5       3.135   6.087   9.004  1.00  0.00     0.063 N 
ENDBRANCH  34  35
ENDBRANCH  33  34
ENDBRANCH  32  33
ENDBRANCH   1  32
BRANCH   1  39
ATOM     39  C   ARG     5       3.393  -1.358  10.725  1.00  0.00     0.256 C 
ATOM     40  O   ARG     5       3.773  -2.241   9.949  1.00  0.00    -0.270 OA
ATOM     41  N   PRO     6       2.706  -1.621  11.841  1.00  0.00    -0.312 N 
ATOM     42  CA  PRO     6       2.196  -2.962  12.207  1.00  0.00     0.165 C 
ATOM     43  CD  PRO     6       2.484  -0.674  12.955  1.00  0.00     0.105 C 
ATOM     44  CB  PRO     6       1.401  -2.740  13.495  1.00  0.00     0.034 C 
ATOM     45  CG  PRO     6       2.121  -1.567  14.143  1.00  0.00     0.027 C 
BRANCH  42  46
ATOM     46  C   PRO     6       1.298  -3.541  11.101  1.00  0.00     0.272 C 
ATOM     47  N   SER     7       1.538  -4.761  10.640  1.00  0.00    -0.226 NA
ATOM     48  O   PRO     6       0.432  -2.836  10.575  1.00  0.00    -0.269 OA
BRANCH  47  49
ATOM     49  CA  SER     7       2.622  -5.677  11.074  1.00  0.00     0.219 C 
BRANCH  49  50
ATOM     50  C   SER     7       3.499  -6.129   9.894  1.00  0.00     0.277 C 
ATOM     51  O   SER     7       2.964  -6.570   8.882  1.00  0.00    -0.268 OA
ATOM     52  N   GLY     8       4.779  -5.789   9.963  1.00  0.00    -0.226 NA
BRANCH  52  53
ATOM     53  CA  GLY     8       5.789  -6.329   9.014  1.00  0.00     0.218 C 
BRANCH  53  54
ATOM     54  C   GLY     8       7.201  -6.629   9.549  1.00  0.00     0.277 C 
ATOM     55  N   GLY     9       8.078  -5.615   9.564  1.00  0.00    -0.226 NA
ATOM     56  O   GLY     8       7.471  -7.739   9.977  1.00  0.00    -0.268 OA
BRANCH  55  57
ATOM     57  CA  GLY     9       9.478  -5.766  10.013  1.00  0.00     0.218 C 
BRANCH  57  58
ATOM     58  C   GLY     9      10.393  -6.244   8.861  1.00  0.00     0.277 C 
ATOM     59  O   GLY     9      10.588  -7.443   8.707  1.00  0.00    -0.268 OA
ATOM     60  N   CYS    10      11.107  -5.394   8.136  1.00  0.00    -0.228 NA
BRANCH  60  61
ATOM     61  CA  CYS    10      11.203  -3.922   8.290  1.00  0.00     0.198 C 
BRANCH  61  62
ATOM     62  CB  CYS    10      12.304  -3.508   9.273  1.00  0.00     0.103 C 
ATOM     63  SG  CYS    10      13.580  -4.742   9.698  1.00  0.00    -0.080 SA
ENDBRANCH  61  62
BRANCH  61  64
ATOM     64  C   CYS    10      11.548  -3.180   6.997  1.00  0.00     0.275 C 
ATOM     65  O   CYS    10      12.729  -3.020   6.692  1.00  0.00    -0.268 OA
ATOM     66  N   GLY    11      10.527  -3.052   6.165  1.00  0.00    -0.225 NA
BRANCH  66  67
ATOM     67  CA  GLY    11      10.387  -1.876   5.295  1.00  0.00     0.226 C 
BRANCH  67  68
ATOM     68  C   GLY    11       8.883  -1.559   5.301  1.00  0.00     0.211 C 
ATOM     69  O2  GLY    11       8.488  -0.802   4.389  1.00  0.00    -0.646 OA
ATOM     70  O1  GLY    11       8.155  -2.348   5.947  1.00  0.00    -0.646 OA
ENDBRANCH  67  68
ENDBRANCH  66  67
ENDBRANCH  61  64
ENDBRANCH  60  61
ENDBRANCH  57  58
ENDBRANCH  55  57
ENDBRANCH  53  54
ENDBRANCH  52  53
ENDBRANCH  49  50
BRANCH  49  71
ATOM     71  CB  SER     7       2.065  -6.938  11.738  1.00  0.00     0.216 C 
ATOM     72  OG  SER     7       3.132  -7.834  12.051  1.00  0.00    -0.218 OA
ENDBRANCH  49  71
ENDBRANCH  47  49
ENDBRANCH  42  46
ENDBRANCH   1  39
TORSDOF 33
ENDMDL
MODEL 3
REMARK VINA RESULT:      -5.7     13.183     20.094
REMARK WARNING: 32 MAX_TORS EXCEEDED!!!
REMARK  33 active torsions:
REMARK  status: ('A' for Active; 'I' for Inactive)
REMARK    1  A    between atoms: CA_2  and  C_8 
REMARK    2  A    between atoms: CA_2  and  CB_3 
REMARK    3  A    between atoms: CB_3  and  CG_4 
REMARK    4  A    between atoms: CG_4  and  CD_5 
REMARK       I    between atoms: C_8  and  N_10 
REMARK    5  A    between atoms: N_10  and  CA_11 
REMARK    6  A    between atoms: CA_11  and  C_12 
REMARK       I    between atoms: C_12  and  N_14 
REMARK    7  A    between atoms: N_14  and  CA_15 
REMARK    8  A    between atoms: CA_15  and  C_20 
REMARK    9  A    between atoms: CA_15  and  CB_16 
REMARK   10  A    between atoms: CB_16  and  CG_17 
REMARK       I    between atoms: C_20  and  N_22 
REMARK   11  A    between atoms: N_22  and  CA_23 
REMARK   12  A    between atoms: CA_23  and  CB_24 
REMARK   13  A    between atoms: CA_23  and  C_28 
REMARK   14  A    between atoms: CB_24  and  CG_25 
REMARK       I    between atoms: C_28  and  N_30 
REMARK   15  A    between atoms: N_30  and  CA_31 
REMARK   16  A    between atoms: CA_31  and  CB_32 
REMARK   17  A    between atoms: CA_31  and  C_39 
REMARK   18  A    between atoms: CB_32  and  CG_33 
REMARK   19  A    between atoms: CG_33  and  CD_34 
REMARK   20  A    between atoms: CD_34  and  NE_35 
REMARK       I    between atoms: C_39  and  N_41 
REMARK   21  A    between atoms: CA_42  and  C_46 
REMARK       I    between atoms: C_46  and  N_48 
REMARK   22  A    between atoms: N_48  and  CA_49 
REMARK   23  A    between atoms: CA_49  and  C_52 
REMARK   24  A    between atoms: CA_49  and  CB_50 
REMARK       I    between atoms: C_52  and  N_54 
REMARK   25  A    between atoms: N_54  and  CA_55 
REMARK   26  A    between atoms: CA_55  and  C_56 
REMARK       I    between atoms: C_56  and  N_58 
REMARK   27  A    between atoms: N_58  and  CA_59 
REMARK   28  A    between atoms: CA_59  and  C_60 
REMARK       I    between atoms: C_60  and  N_62 
REMARK   29  A    between atoms: N_62  and  CA_63 
REMARK   30  A    between atoms: CA_63  and  CB_64 
REMARK   31  A    between atoms: CA_63  and  C_66 
REMARK       I    between atoms: C_66  and  N_68 
REMARK   32  A    between atoms: N_68  and  CA_69 
REMARK   33  A    between atoms: CA_69  and  C_70 
ROOT
ATOM      1  CA  ARG     5       2.796  -0.394   9.909  1.00  0.00     0.185 C 
ENDROOT
BRANCH   1   2
ATOM      2  N   ARG     5       4.064   0.267   9.548  1.00  0.00    -0.229 NA
ATOM      3  C   ASN     4       5.022   0.613  10.394  1.00  0.00     0.275 C 
ATOM      4  O   ASN     4       4.882   0.663  11.612  1.00  0.00    -0.268 OA
BRANCH   3   5
ATOM      5  CA  ASN     4       6.226   1.275   9.691  1.00  0.00     0.196 C 
BRANCH   5   6
ATOM      6  N   ASN     4       6.973   0.281   8.891  1.00  0.00    -0.228 NA
ATOM      7  C   LEU     3       8.287   0.102   8.994  1.00  0.00     0.274 C 
ATOM      8  O   LEU     3       9.028   0.723   9.762  1.00  0.00    -0.268 OA
BRANCH   7   9
ATOM      9  CA  LEU     3       8.856  -1.012   8.117  1.00  0.00     0.186 C 
BRANCH   9  10
ATOM     10  N   LEU     3      10.171  -0.597   7.579  1.00  0.00    -0.229 NA
ATOM     11  C   GLY     2      10.451  -0.590   6.273  1.00  0.00     0.277 C 
ATOM     12  O   GLY     2       9.609  -0.772   5.406  1.00  0.00    -0.268 OA
BRANCH  11  13
ATOM     13  CA  GLY     2      11.884  -0.164   5.890  1.00  0.00     0.218 C 
BRANCH  13  14
ATOM     14  N   GLY     2      12.723  -1.129   5.139  1.00  0.00    -0.226 NA
ATOM     15  C   GLU     1      13.955  -0.820   4.718  1.00  0.00     0.289 C 
ATOM     16  O   GLU     1      14.505   0.207   5.077  1.00  0.00    -0.268 OA
BRANCH  15  17
ATOM     17  CA  GLU     1      14.716  -1.839   3.828  1.00  0.00     0.381 C 
ATOM     18  N   GLU     1      14.725  -3.209   4.372  1.00  0.00     0.626 N 
BRANCH  17  19
ATOM     19  CB  GLU     1      14.108  -1.803   2.411  1.00  0.00     0.060 C 
BRANCH  19  20
ATOM     20  CG  GLU     1      13.937  -0.453   1.698  1.00  0.00     0.100 C 
BRANCH  20  21
ATOM     21  CD  GLU     1      12.570  -0.312   1.011  1.00  0.00     0.185 C 
ATOM     22  OE1 GLU     1      11.551  -0.626   1.652  1.00  0.00    -0.647 OA
ATOM     23  OE2 GLU     1      12.538   0.081  -0.168  1.00  0.00    -0.647 OA
ENDBRANCH  20  21
ENDBRANCH  19  20
ENDBRANCH  17  19
ENDBRANCH  15  17
ENDBRANCH  13  14
ENDBRANCH  11  13
ENDBRANCH   9  10
BRANCH   9  24
ATOM     24  CB  LEU     3       8.999  -2.283   8.963  1.00  0.00     0.034 C 
BRANCH  24  25
ATOM     25  CG  LEU     3       8.724  -3.583   8.186  1.00  0.00     0.002 C 
ATOM     26  CD1 LEU     3       7.693  -3.312   7.091  1.00  0.00     0.000 C 
ATOM     27  CD2 LEU     3      10.010  -4.143   7.568  1.00  0.00     0.000 C 
ENDBRANCH  24  25
ENDBRANCH   9  24
ENDBRANCH   7   9
ENDBRANCH   5   6
BRANCH   5  28
ATOM     28  CB  ASN     4       5.784   2.450   8.803  1.00  0.00     0.126 C 
BRANCH  28  29
ATOM     29  CG  ASN     4       6.555   3.756   9.075  1.00  0.00     0.276 C 
ATOM     30  ND2 ASN     4       7.386   3.740  10.083  1.00  0.00    -0.107 N 
ATOM     31  OD1 ASN     4       6.475   4.749   8.378  1.00  0.00    -0.269 OA
ENDBRANCH  28  29
ENDBRANCH   5  28
ENDBRANCH   3   5
ENDBRANCH   1   2
BRANCH   1  32
ATOM     32  CB  ARG     5       1.788  -0.287   8.760  1.00  0.00     0.036 C 
BRANCH  32  33
ATOM     33  CG  ARG     5       0.367   0.052   9.214  1.00  0.00     0.029 C 
BRANCH  33  34
ATOM     34  CD  ARG     5       0.036   1.487   8.815  1.00  0.00     0.145 C 
BRANCH  34  35
ATOM     35  NE  ARG     5       1.154   2.416   9.107  1.00  0.00    -0.083 NA
ATOM     36  CZ  ARG     5       1.378   2.995  10.296  1.00  0.00     0.782 C 
ATOM     37  NH2 ARG     5       2.537   3.623  10.555  1.00  0.00     0.063 N 
ATOM     38  NH1 ARG     5       0.522   2.864  11.299  1.00  0.00     0.063 N 
ENDBRANCH  34  35
ENDBRANCH  33  34
ENDBRANCH  32  33
ENDBRANCH   1  32
BRANCH   1  39
ATOM     39  C   ARG     5       3.061  -1.878  10.226  1.00  0.00     0.256 C 
ATOM     40  O   ARG     5       3.892  -2.507   9.564  1.00  0.00    -0.270 OA
ATOM     41  N   PRO     6       2.439  -2.396  11.289  1.00  0.00    -0.312 N 
ATOM     42  CA  PRO     6       2.554  -3.810  11.712  1.00  0.00     0.165 C 
ATOM     43  CD  PRO     6       1.675  -1.627  12.296  1.00  0.00     0.105 C 
ATOM     44  CB  PRO     6       1.596  -3.944  12.896  1.00  0.00     0.034 C 
ATOM     45  CG  PRO     6       1.618  -2.552  13.512  1.00  0.00     0.027 C 
BRANCH  42  46
ATOM     46  C   PRO     6       2.162  -4.770  10.577  1.00  0.00     0.272 C 
ATOM     47  N   SER     7       3.015  -5.711  10.196  1.00  0.00    -0.226 NA
ATOM     48  O   PRO     6       1.108  -4.596   9.958  1.00  0.00    -0.269 OA
BRANCH  47  49
ATOM     49  CA  SER     7       4.368  -5.959  10.748  1.00  0.00     0.219 C 
BRANCH  49  50
ATOM     50  C   SER     7       5.345  -6.465   9.673  1.00  0.00     0.277 C 
ATOM     51  O   SER     7       4.929  -6.692   8.542  1.00  0.00    -0.268 OA
ATOM     52  N   GLY     8       6.632  -6.396   9.984  1.00  0.00    -0.226 NA
BRANCH  52  53
ATOM     53  CA  GLY     8       7.681  -7.035   9.146  1.00  0.00     0.218 C 
BRANCH  53  54
ATOM     54  C   GLY     8       9.106  -7.139   9.718  1.00  0.00     0.277 C 
ATOM     55  N   GLY     9      10.083  -7.485   8.868  1.00  0.00    -0.226 NA
ATOM     56  O   GLY     8       9.317  -6.871  10.889  1.00  0.00    -0.268 OA
BRANCH  55  57
ATOM     57  CA  GLY     9      11.489  -7.661   9.285  1.00  0.00     0.218 C 
BRANCH  57  58
ATOM     58  C   GLY     9      11.870  -9.158   9.372  1.00  0.00     0.277 C 
ATOM     59  O   GLY     9      11.580  -9.793  10.378  1.00  0.00    -0.268 OA
ATOM     60  N   CYS    10      12.647  -9.736   8.467  1.00  0.00    -0.228 NA
BRANCH  60  61
ATOM     61  CA  CYS    10      13.298  -9.109   7.290  1.00  0.00     0.198 C 
BRANCH  61  62
ATOM     62  CB  CYS    10      14.736  -8.667   7.585  1.00  0.00     0.103 C 
ATOM     63  SG  CYS    10      15.160  -6.909   7.330  1.00  0.00    -0.080 SA
ENDBRANCH  61  62
BRANCH  61  64
ATOM     64  C   CYS    10      13.424 -10.035   6.079  1.00  0.00     0.275 C 
ATOM     65  O   CYS    10      13.615  -9.547   4.966  1.00  0.00    -0.268 OA
ATOM     66  N   GLY    11      13.629 -11.304   6.395  1.00  0.00    -0.225 NA
BRANCH  66  67
ATOM     67  CA  GLY    11      13.102 -12.397   5.566  1.00  0.00     0.226 C 
BRANCH  67  68
ATOM     68  C   GLY    11      12.882 -13.561   6.545  1.00  0.00     0.211 C 
ATOM     69  O2  GLY    11      13.390 -13.415   7.678  1.00  0.00    -0.646 OA
ATOM     70  O1  GLY    11      11.942 -14.342   6.274  1.00  0.00    -0.646 OA
ENDBRANCH  67  68
ENDBRANCH  66  67
ENDBRANCH  61  64
ENDBRANCH  60  61
ENDBRANCH  57  58
ENDBRANCH  55  57
ENDBRANCH  53  54
ENDBRANCH  52  53
ENDBRANCH  49  50
BRANCH  49  71
ATOM     71  CB  SER     7       4.340  -7.003  11.866  1.00  0.00     0.216 C 
ATOM     72  OG  SER     7       4.985  -6.487  13.031  1.00  0.00    -0.218 OA
ENDBRANCH  49  71
ENDBRANCH  47  49
ENDBRANCH  42  46
ENDBRANCH   1  39
TORSDOF 33
ENDMDL
MODEL 4
REMARK VINA RESULT:      -5.7     13.187     15.911
REMARK WARNING: 32 MAX_TORS EXCEEDED!!!
REMARK  33 active torsions:
REMARK  status: ('A' for Active; 'I' for Inactive)
REMARK    1  A    between atoms: CA_2  and  C_8 
REMARK    2  A    between atoms: CA_2  and  CB_3 
REMARK    3  A    between atoms: CB_3  and  CG_4 
REMARK    4  A    between atoms: CG_4  and  CD_5 
REMARK       I    between atoms: C_8  and  N_10 
REMARK    5  A    between atoms: N_10  and  CA_11 
REMARK    6  A    between atoms: CA_11  and  C_12 
REMARK       I    between atoms: C_12  and  N_14 
REMARK    7  A    between atoms: N_14  and  CA_15 
REMARK    8  A    between atoms: CA_15  and  C_20 
REMARK    9  A    between atoms: CA_15  and  CB_16 
REMARK   10  A    between atoms: CB_16  and  CG_17 
REMARK       I    between atoms: C_20  and  N_22 
REMARK   11  A    between atoms: N_22  and  CA_23 
REMARK   12  A    between atoms: CA_23  and  CB_24 
REMARK   13  A    between atoms: CA_23  and  C_28 
REMARK   14  A    between atoms: CB_24  and  CG_25 
REMARK       I    between atoms: C_28  and  N_30 
REMARK   15  A    between atoms: N_30  and  CA_31 
REMARK   16  A    between atoms: CA_31  and  CB_32 
REMARK   17  A    between atoms: CA_31  and  C_39 
REMARK   18  A    between atoms: CB_32  and  CG_33 
REMARK   19  A    between atoms: CG_33  and  CD_34 
REMARK   20  A    between atoms: CD_34  and  NE_35 
REMARK       I    between atoms: C_39  and  N_41 
REMARK   21  A    between atoms: CA_42  and  C_46 
REMARK       I    between atoms: C_46  and  N_48 
REMARK   22  A    between atoms: N_48  and  CA_49 
REMARK   23  A    between atoms: CA_49  and  C_52 
REMARK   24  A    between atoms: CA_49  and  CB_50 
REMARK       I    between atoms: C_52  and  N_54 
REMARK   25  A    between atoms: N_54  and  CA_55 
REMARK   26  A    between atoms: CA_55  and  C_56 
REMARK       I    between atoms: C_56  and  N_58 
REMARK   27  A    between atoms: N_58  and  CA_59 
REMARK   28  A    between atoms: CA_59  and  C_60 
REMARK       I    between atoms: C_60  and  N_62 
REMARK   29  A    between atoms: N_62  and  CA_63 
REMARK   30  A    between atoms: CA_63  and  CB_64 
REMARK   31  A    between atoms: CA_63  and  C_66 
REMARK       I    between atoms: C_66  and  N_68 
REMARK   32  A    between atoms: N_68  and  CA_69 
REMARK   33  A    between atoms: CA_69  and  C_70 
ROOT
ATOM      1  CA  ARG     5      -9.828  -5.131   7.485  1.00  0.00     0.185 C 
ENDROOT
BRANCH   1   2
ATOM      2  N   ARG     5      -9.231  -5.096   8.834  1.00  0.00    -0.229 NA
ATOM      3  C   ASN     4      -8.598  -6.098   9.423  1.00  0.00     0.275 C 
ATOM      4  O   ASN     4      -8.639  -7.262   9.038  1.00  0.00    -0.268 OA
BRANCH   3   5
ATOM      5  CA  ASN     4      -8.081  -5.730  10.830  1.00  0.00     0.196 C 
BRANCH   5   6
ATOM      6  N   ASN     4      -7.289  -4.483  10.785  1.00  0.00    -0.228 NA
ATOM      7  C   LEU     3      -6.342  -4.189  11.673  1.00  0.00     0.274 C 
ATOM      8  O   LEU     3      -6.011  -4.910  12.619  1.00  0.00    -0.268 OA
BRANCH   7   9
ATOM      9  CA  LEU     3      -5.604  -2.875  11.417  1.00  0.00     0.186 C 
BRANCH   9  10
ATOM     10  N   LEU     3      -4.166  -3.048  11.718  1.00  0.00    -0.229 NA
ATOM     11  C   GLY     2      -3.508  -2.271  12.584  1.00  0.00     0.277 C 
ATOM     12  O   GLY     2      -4.062  -1.460  13.311  1.00  0.00    -0.268 OA
BRANCH  11  13
ATOM     13  CA  GLY     2      -2.003  -2.567  12.750  1.00  0.00     0.218 C 
BRANCH  13  14
ATOM     14  N   GLY     2      -1.082  -2.130  11.674  1.00  0.00    -0.226 NA
ATOM     15  C   GLU     1      -0.433  -0.960  11.726  1.00  0.00     0.289 C 
ATOM     16  O   GLU     1      -0.443  -0.279  12.738  1.00  0.00    -0.268 OA
BRANCH  15  17
ATOM     17  CA  GLU     1       0.411  -0.520  10.500  1.00  0.00     0.381 C 
ATOM     18  N   GLU     1       1.199  -1.611   9.901  1.00  0.00     0.626 N 
BRANCH  17  19
ATOM     19  CB  GLU     1      -0.530   0.126   9.463  1.00  0.00     0.060 C 
BRANCH  19  20
ATOM     20  CG  GLU     1      -0.133   1.460   8.812  1.00  0.00     0.100 C 
BRANCH  20  21
ATOM     21  CD  GLU     1       0.944   2.213   9.607  1.00  0.00     0.185 C 
ATOM     22  OE1 GLU     1       2.119   2.167   9.202  1.00  0.00    -0.647 OA
ATOM     23  OE2 GLU     1       0.604   2.813  10.642  1.00  0.00    -0.647 OA
ENDBRANCH  20  21
ENDBRANCH  19  20
ENDBRANCH  17  19
ENDBRANCH  15  17
ENDBRANCH  13  14
ENDBRANCH  11  13
ENDBRANCH   9  10
BRANCH   9  24
ATOM     24  CB  LEU     3      -5.801  -2.478   9.949  1.00  0.00     0.034 C 
BRANCH  24  25
ATOM     25  CG  LEU     3      -6.433  -1.087   9.761  1.00  0.00     0.002 C 
ATOM     26  CD1 LEU     3      -7.950  -1.228   9.652  1.00  0.00     0.000 C 
ATOM     27  CD2 LEU     3      -6.075  -0.153  10.922  1.00  0.00     0.000 C 
ENDBRANCH  24  25
ENDBRANCH   9  24
ENDBRANCH   7   9
ENDBRANCH   5   6
BRANCH   5  28
ATOM     28  CB  ASN     4      -9.236  -5.590  11.836  1.00  0.00     0.126 C 
BRANCH  28  29
ATOM     29  CG  ASN     4      -9.262  -6.698  12.907  1.00  0.00     0.276 C 
ATOM     30  ND2 ASN     4      -8.726  -6.403  14.061  1.00  0.00    -0.107 N 
ATOM     31  OD1 ASN     4      -9.801  -7.778  12.753  1.00  0.00    -0.269 OA
ENDBRANCH  28  29
ENDBRANCH   5  28
ENDBRANCH   3   5
ENDBRANCH   1   2
BRANCH   1  32
ATOM     32  CB  ARG     5     -11.300  -4.708   7.538  1.00  0.00     0.036 C 
BRANCH  32  33
ATOM     33  CG  ARG     5     -12.152  -5.549   8.490  1.00  0.00     0.029 C 
BRANCH  33  34
ATOM     34  CD  ARG     5     -13.138  -4.644   9.222  1.00  0.00     0.145 C 
BRANCH  34  35
ATOM     35  NE  ARG     5     -12.527  -3.345   9.594  1.00  0.00    -0.083 NA
ATOM     36  CZ  ARG     5     -12.134  -3.010  10.831  1.00  0.00     0.782 C 
ATOM     37  NH2 ARG     5     -11.371  -1.926  11.048  1.00  0.00     0.063 N 
ATOM     38  NH1 ARG     5     -12.373  -3.800  11.869  1.00  0.00     0.063 N 
ENDBRANCH  34  35
ENDBRANCH  33  34
ENDBRANCH  32  33
ENDBRANCH   1  32
BRANCH   1  39
ATOM     39  C   ARG     5      -9.051  -4.181   6.554  1.00  0.00     0.256 C 
ATOM     40  O   ARG     5      -8.222  -3.399   7.030  1.00  0.00    -0.270 OA
ATOM     41  N   PRO     6      -9.243  -4.322   5.239  1.00  0.00    -0.312 N 
ATOM     42  CA  PRO     6      -8.605  -3.472   4.210  1.00  0.00     0.165 C 
ATOM     43  CD  PRO     6      -9.982  -5.430   4.595  1.00  0.00     0.105 C 
ATOM     44  CB  PRO     6      -9.204  -3.945   2.884  1.00  0.00     0.034 C 
ATOM     45  CG  PRO     6      -9.491  -5.417   3.146  1.00  0.00     0.027 C 
BRANCH  42  46
ATOM     46  C   PRO     6      -8.905  -1.983   4.447  1.00  0.00     0.272 C 
ATOM     47  N   SER     7      -7.900  -1.137   4.627  1.00  0.00    -0.226 NA
ATOM     48  O   PRO     6     -10.072  -1.600   4.574  1.00  0.00    -0.269 OA
BRANCH  47  49
ATOM     49  CA  SER     7      -6.454  -1.466   4.638  1.00  0.00     0.219 C 
BRANCH  49  50
ATOM     50  C   SER     7      -5.737  -0.872   5.863  1.00  0.00     0.277 C 
ATOM     51  O   SER     7      -5.133  -1.619   6.626  1.00  0.00    -0.268 OA
ATOM     52  N   GLY     8      -5.625   0.449   5.882  1.00  0.00    -0.226 NA
BRANCH  52  53
ATOM     53  CA  GLY     8      -5.151   1.182   7.085  1.00  0.00     0.218 C 
BRANCH  53  54
ATOM     54  C   GLY     8      -6.168   2.038   7.862  1.00  0.00     0.277 C 
ATOM     55  N   GLY     9      -7.454   1.944   7.495  1.00  0.00    -0.226 NA
ATOM     56  O   GLY     8      -5.800   2.731   8.795  1.00  0.00    -0.268 OA
BRANCH  55  57
ATOM     57  CA  GLY     9      -8.532   2.734   8.123  1.00  0.00     0.218 C 
BRANCH  57  58
ATOM     58  C   GLY     9      -8.978   3.905   7.216  1.00  0.00     0.277 C 
ATOM     59  O   GLY     9      -9.028   5.038   7.678  1.00  0.00    -0.268 OA
ATOM     60  N   CYS    10      -9.467   3.701   6.001  1.00  0.00    -0.228 NA
BRANCH  60  61
ATOM     61  CA  CYS    10      -9.710   2.404   5.322  1.00  0.00     0.198 C 
BRANCH  61  62
ATOM     62  CB  CYS    10     -11.203   2.085   5.187  1.00  0.00     0.103 C 
ATOM     63  SG  CYS    10     -12.401   3.329   5.780  1.00  0.00    -0.080 SA
ENDBRANCH  61  62
BRANCH  61  64
ATOM     64  C   CYS    10      -9.175   2.339   3.890  1.00  0.00     0.275 C 
ATOM     65  O   CYS    10      -8.015   1.980   3.696  1.00  0.00    -0.268 OA
ATOM     66  N   GLY    11     -10.120   2.378   2.964  1.00  0.00    -0.225 NA
BRANCH  66  67
ATOM     67  CA  GLY    11      -9.892   3.015   1.659  1.00  0.00     0.226 C 
BRANCH  67  68
ATOM     68  C   GLY    11     -11.172   3.820   1.385  1.00  0.00     0.211 C 
ATOM     69  O2  GLY    11     -11.630   4.452   2.362  1.00  0.00    -0.646 OA
ATOM     70  O1  GLY    11     -11.419   4.074   0.184  1.00  0.00    -0.646 OA
ENDBRANCH  67  68
ENDBRANCH  66  67
ENDBRANCH  61  64
ENDBRANCH  60  61
ENDBRANCH  57  58
ENDBRANCH  55  57
ENDBRANCH  53  54
ENDBRANCH  52  53
ENDBRANCH  49  50
BRANCH  49  71
ATOM     71  CB  SER     7      -5.743  -0.934   3.392  1.00  0.00     0.216 C 
ATOM     72  OG  SER     7      -5.855  -1.878   2.327  1.00  0.00    -0.218 OA
ENDBRANCH  49  71
ENDBRANCH  47  49
ENDBRANCH  42  46
ENDBRANCH   1  39
TORSDOF 33
ENDMDL
MODEL 5
REMARK VINA RESULT:      -5.6      2.029      2.672
REMARK WARNING: 32 MAX_TORS EXCEEDED!!!
REMARK  33 active torsions:
REMARK  status: ('A' for Active; 'I' for Inactive)
REMARK    1  A    between atoms: CA_2  and  C_8 
REMARK    2  A    between atoms: CA_2  and  CB_3 
REMARK    3  A    between atoms: CB_3  and  CG_4 
REMARK    4  A    between atoms: CG_4  and  CD_5 
REMARK       I    between atoms: C_8  and  N_10 
REMARK    5  A    between atoms: N_10  and  CA_11 
REMARK    6  A    between atoms: CA_11  and  C_12 
REMARK       I    between atoms: C_12  and  N_14 
REMARK    7  A    between atoms: N_14  and  CA_15 
REMARK    8  A    between atoms: CA_15  and  C_20 
REMARK    9  A    between atoms: CA_15  and  CB_16 
REMARK   10  A    between atoms: CB_16  and  CG_17 
REMARK       I    between atoms: C_20  and  N_22 
REMARK   11  A    between atoms: N_22  and  CA_23 
REMARK   12  A    between atoms: CA_23  and  CB_24 
REMARK   13  A    between atoms: CA_23  and  C_28 
REMARK   14  A    between atoms: CB_24  and  CG_25 
REMARK       I    between atoms: C_28  and  N_30 
REMARK   15  A    between atoms: N_30  and  CA_31 
REMARK   16  A    between atoms: CA_31  and  CB_32 
REMARK   17  A    between atoms: CA_31  and  C_39 
REMARK   18  A    between atoms: CB_32  and  CG_33 
REMARK   19  A    between atoms: CG_33  and  CD_34 
REMARK   20  A    between atoms: CD_34  and  NE_35 
REMARK       I    between atoms: C_39  and  N_41 
REMARK   21  A    between atoms: CA_42  and  C_46 
REMARK       I    between atoms: C_46  and  N_48 
REMARK   22  A    between atoms: N_48  and  CA_49 
REMARK   23  A    between atoms: CA_49  and  C_52 
REMARK   24  A    between atoms: CA_49  and  CB_50 
REMARK       I    between atoms: C_52  and  N_54 
REMARK   25  A    between atoms: N_54  and  CA_55 
REMARK   26  A    between atoms: CA_55  and  C_56 
REMARK       I    between atoms: C_56  and  N_58 
REMARK   27  A    between atoms: N_58  and  CA_59 
REMARK   28  A    between atoms: CA_59  and  C_60 
REMARK       I    between atoms: C_60  and  N_62 
REMARK   29  A    between atoms: N_62  and  CA_63 
REMARK   30  A    between atoms: CA_63  and  CB_64 
REMARK   31  A    between atoms: CA_63  and  C_66 
REMARK       I    between atoms: C_66  and  N_68 
REMARK   32  A    between atoms: N_68  and  CA_69 
REMARK   33  A    between atoms: CA_69  and  C_70 
ROOT
ATOM      1  CA  ARG     5      -3.297 -16.596   8.280  1.00  0.00     0.185 C 
ENDROOT
BRANCH   1   2
ATOM      2  N   ARG     5      -2.340 -17.269   7.382  1.00  0.00    -0.229 NA
ATOM      3  C   ASN     4      -1.770 -18.443   7.602  1.00  0.00     0.275 C 
ATOM      4  O   ASN     4      -1.762 -19.013   8.689  1.00  0.00    -0.268 OA
BRANCH   3   5
ATOM      5  CA  ASN     4      -0.828 -18.871   6.458  1.00  0.00     0.196 C 
BRANCH   5   6
ATOM      6  N   ASN     4       0.242 -19.756   6.966  1.00  0.00    -0.228 NA
ATOM      7  C   LEU     3       1.513 -19.378   7.068  1.00  0.00     0.274 C 
ATOM      8  O   LEU     3       1.946 -18.263   6.765  1.00  0.00    -0.268 OA
BRANCH   7   9
ATOM      9  CA  LEU     3       2.451 -20.426   7.668  1.00  0.00     0.186 C 
BRANCH   9  10
ATOM     10  N   LEU     3       3.685 -20.510   6.855  1.00  0.00    -0.229 NA
ATOM     11  C   GLY     2       4.788 -21.137   7.275  1.00  0.00     0.277 C 
ATOM     12  O   GLY     2       4.825 -21.822   8.286  1.00  0.00    -0.268 OA
BRANCH  11  13
ATOM     13  CA  GLY     2       5.996 -21.094   6.315  1.00  0.00     0.218 C 
BRANCH  13  14
ATOM     14  N   GLY     2       6.973 -19.989   6.470  1.00  0.00    -0.226 NA
ATOM     15  C   GLU     1       7.736 -19.570   5.454  1.00  0.00     0.289 C 
ATOM     16  O   GLU     1       7.544 -19.965   4.316  1.00  0.00    -0.268 OA
BRANCH  15  17
ATOM     17  CA  GLU     1       8.822 -18.496   5.731  1.00  0.00     0.381 C 
ATOM     18  N   GLU     1       8.600 -17.230   5.012  1.00  0.00     0.626 N 
BRANCH  17  19
ATOM     19  CB  GLU     1       8.910 -18.268   7.254  1.00  0.00     0.060 C 
BRANCH  19  20
ATOM     20  CG  GLU     1       9.085 -16.840   7.793  1.00  0.00     0.100 C 
BRANCH  20  21
ATOM     21  CD  GLU     1       7.812 -16.295   8.459  1.00  0.00     0.185 C 
ATOM     22  OE1 GLU     1       7.330 -15.232   8.030  1.00  0.00    -0.647 OA
ATOM     23  OE2 GLU     1       7.333 -16.920   9.421  1.00  0.00    -0.647 OA
ENDBRANCH  20  21
ENDBRANCH  19  20
ENDBRANCH  17  19
ENDBRANCH  15  17
ENDBRANCH  13  14
ENDBRANCH  11  13
ENDBRANCH   9  10
BRANCH   9  24
ATOM     24  CB  LEU     3       2.783 -20.022   9.110  1.00  0.00     0.034 C 
BRANCH  24  25
ATOM     25  CG  LEU     3       1.862 -20.664  10.163  1.00  0.00     0.002 C 
ATOM     26  CD1 LEU     3       1.485 -22.075   9.717  1.00  0.00     0.000 C 
ATOM     27  CD2 LEU     3       2.539 -20.711  11.537  1.00  0.00     0.000 C 
ENDBRANCH  24  25
ENDBRANCH   9  24
ENDBRANCH   7   9
ENDBRANCH   5   6
BRANCH   5  28
ATOM     28  CB  ASN     4      -1.599 -19.567   5.324  1.00  0.00     0.126 C 
BRANCH  28  29
ATOM     29  CG  ASN     4      -2.700 -20.524   5.819  1.00  0.00     0.276 C 
ATOM     30  ND2 ASN     4      -2.319 -21.732   6.140  1.00  0.00    -0.107 N 
ATOM     31  OD1 ASN     4      -3.861 -20.197   5.983  1.00  0.00    -0.269 OA
ENDBRANCH  28  29
ENDBRANCH   5  28
ENDBRANCH   3   5
ENDBRANCH   1   2
BRANCH   1  32
ATOM     32  CB  ARG     5      -2.870 -15.145   8.531  1.00  0.00     0.036 C 
BRANCH  32  33
ATOM     33  CG  ARG     5      -2.934 -14.726  10.000  1.00  0.00     0.029 C 
BRANCH  33  34
ATOM     34  CD  ARG     5      -4.381 -14.427  10.380  1.00  0.00     0.145 C 
BRANCH  34  35
ATOM     35  NE  ARG     5      -4.930 -15.439  11.314  1.00  0.00    -0.083 NA
ATOM     36  CZ  ARG     5      -4.851 -15.370  12.651  1.00  0.00     0.782 C 
ATOM     37  NH2 ARG     5      -5.577 -16.185  13.432  1.00  0.00     0.063 N 
ATOM     38  NH1 ARG     5      -4.153 -14.417  13.252  1.00  0.00     0.063 N 
ENDBRANCH  34  35
ENDBRANCH  33  34
ENDBRANCH  32  33
ENDBRANCH   1  32
BRANCH   1  39
ATOM     39  C   ARG     5      -4.701 -16.618   7.647  1.00  0.00     0.256 C 
ATOM     40  O   ARG     5      -4.944 -15.902   6.671  1.00  0.00    -0.270 OA
ATOM     41  N   PRO     6      -5.576 -17.505   8.132  1.00  0.00    -0.312 N 
ATOM     42  CA  PRO     6      -6.973 -17.635   7.662  1.00  0.00     0.165 C 
ATOM     43  CD  PRO     6      -5.257 -18.591   9.084  1.00  0.00     0.105 C 
ATOM     44  CB  PRO     6      -7.595 -18.695   8.573  1.00  0.00     0.034 C 
ATOM     45  CG  PRO     6      -6.409 -19.584   8.921  1.00  0.00     0.027 C 
BRANCH  42  46
ATOM     46  C   PRO     6      -7.731 -16.302   7.776  1.00  0.00     0.272 C 
ATOM     47  N   SER     7      -8.335 -15.803   6.707  1.00  0.00    -0.226 NA
ATOM     48  O   PRO     6      -7.683 -15.652   8.825  1.00  0.00    -0.269 OA
BRANCH  47  49
ATOM     49  CA  SER     7      -8.367 -16.396   5.348  1.00  0.00     0.219 C 
BRANCH  49  50
ATOM     50  C   SER     7      -8.530 -15.324   4.256  1.00  0.00     0.277 C 
ATOM     51  O   SER     7      -8.153 -15.567   3.115  1.00  0.00    -0.268 OA
ATOM     52  N   GLY     8      -9.289 -14.285   4.576  1.00  0.00    -0.226 NA
BRANCH  52  53
ATOM     53  CA  GLY     8      -9.373 -13.075   3.715  1.00  0.00     0.218 C 
BRANCH  53  54
ATOM     54  C   GLY     8      -8.521 -11.852   4.098  1.00  0.00     0.277 C 
ATOM     55  N   GLY     9      -9.175 -10.726   4.419  1.00  0.00    -0.226 NA
ATOM     56  O   GLY     8      -7.305 -11.941   4.141  1.00  0.00    -0.268 OA
BRANCH  55  57
ATOM     57  CA  GLY     9      -8.488  -9.466   4.768  1.00  0.00     0.218 C 
BRANCH  57  58
ATOM     58  C   GLY     9      -9.443  -8.480   5.482  1.00  0.00     0.277 C 
ATOM     59  O   GLY     9     -10.062  -8.854   6.470  1.00  0.00    -0.268 OA
ATOM     60  N   CYS    10      -9.740  -7.296   4.965  1.00  0.00    -0.228 NA
BRANCH  60  61
ATOM     61  CA  CYS    10      -9.287  -6.726   3.673  1.00  0.00     0.198 C 
BRANCH  61  62
ATOM     62  CB  CYS    10     -10.290  -6.976   2.540  1.00  0.00     0.103 C 
ATOM     63  SG  CYS    10     -12.018  -6.443   2.795  1.00  0.00    -0.080 SA
ENDBRANCH  61  62
BRANCH  61  64
ATOM     64  C   CYS    10      -9.102  -5.208   3.690  1.00  0.00     0.275 C 
ATOM     65  O   CYS    10      -9.495  -4.565   4.663  1.00  0.00    -0.268 OA
ATOM     66  N   GLY    11      -8.246  -4.762   2.784  1.00  0.00    -0.225 NA
BRANCH  66  67
ATOM     67  CA  GLY    11      -8.418  -3.450   2.145  1.00  0.00     0.226 C 
BRANCH  67  68
ATOM     68  C   GLY    11      -7.459  -2.517   2.900  1.00  0.00     0.211 C 
ATOM     69  O2  GLY    11      -6.292  -2.468   2.454  1.00  0.00    -0.646 OA
ATOM     70  O1  GLY    11      -7.992  -1.640   3.618  1.00  0.00    -0.646 OA
ENDBRANCH  67  68
ENDBRANCH  66  67
ENDBRANCH  61  64
ENDBRANCH  60  61
ENDBRANCH  57  58
ENDBRANCH  55  57
ENDBRANCH  53  54
ENDBRANCH  52  53
ENDBRANCH  49  50
BRANCH  49  71
ATOM     71  CB  SER     7      -9.521 -17.387   5.189  1.00  0.00     0.216 C 
ATOM     72  OG  SER     7      -9.043 -18.603   4.612  1.00  0.00    -0.218 OA
ENDBRANCH  49  71
ENDBRANCH  47  49
ENDBRANCH  42  46
ENDBRANCH   1  39
TORSDOF 33
ENDMDL
MODEL 6
REMARK VINA RESULT:      -5.6     11.488     14.544
REMARK WARNING: 32 MAX_TORS EXCEEDED!!!
REMARK  33 active torsions:
REMARK  status: ('A' for Active; 'I' for Inactive)
REMARK    1  A    between atoms: CA_2  and  C_8 
REMARK    2  A    between atoms: CA_2  and  CB_3 
REMARK    3  A    between atoms: CB_3  and  CG_4 
REMARK    4  A    between atoms: CG_4  and  CD_5 
REMARK       I    between atoms: C_8  and  N_10 
REMARK    5  A    between atoms: N_10  and  CA_11 
REMARK    6  A    between atoms: CA_11  and  C_12 
REMARK       I    between atoms: C_12  and  N_14 
REMARK    7  A    between atoms: N_14  and  CA_15 
REMARK    8  A    between atoms: CA_15  and  C_20 
REMARK    9  A    between atoms: CA_15  and  CB_16 
REMARK   10  A    between atoms: CB_16  and  CG_17 
REMARK       I    between atoms: C_20  and  N_22 
REMARK   11  A    between atoms: N_22  and  CA_23 
REMARK   12  A    between atoms: CA_23  and  CB_24 
REMARK   13  A    between atoms: CA_23  and  C_28 
REMARK   14  A    between atoms: CB_24  and  CG_25 
REMARK       I    between atoms: C_28  and  N_30 
REMARK   15  A    between atoms: N_30  and  CA_31 
REMARK   16  A    between atoms: CA_31  and  CB_32 
REMARK   17  A    between atoms: CA_31  and  C_39 
REMARK   18  A    between atoms: CB_32  and  CG_33 
REMARK   19  A    between atoms: CG_33  and  CD_34 
REMARK   20  A    between atoms: CD_34  and  NE_35 
REMARK       I    between atoms: C_39  and  N_41 
REMARK   21  A    between atoms: CA_42  and  C_46 
REMARK       I    between atoms: C_46  and  N_48 
REMARK   22  A    between atoms: N_48  and  CA_49 
REMARK   23  A    between atoms: CA_49  and  C_52 
REMARK   24  A    between atoms: CA_49  and  CB_50 
REMARK       I    between atoms: C_52  and  N_54 
REMARK   25  A    between atoms: N_54  and  CA_55 
REMARK   26  A    between atoms: CA_55  and  C_56 
REMARK       I    between atoms: C_56  and  N_58 
REMARK   27  A    between atoms: N_58  and  CA_59 
REMARK   28  A    between atoms: CA_59  and  C_60 
REMARK       I    between atoms: C_60  and  N_62 
REMARK   29  A    between atoms: N_62  and  CA_63 
REMARK   30  A    between atoms: CA_63  and  CB_64 
REMARK   31  A    between atoms: CA_63  and  C_66 
REMARK       I    between atoms: C_66  and  N_68 
REMARK   32  A    between atoms: N_68  and  CA_69 
REMARK   33  A    between atoms: CA_69  and  C_70 
ROOT
ATOM      1  CA  ARG     5      -3.956  -0.788  12.528  1.00  0.00     0.185 C 
ENDROOT
BRANCH   1   2
ATOM      2  N   ARG     5      -2.576  -0.852  12.013  1.00  0.00    -0.229 NA
ATOM      3  C   ASN     4      -1.775  -1.905  12.080  1.00  0.00     0.275 C 
ATOM      4  O   ASN     4      -1.977  -2.879  12.798  1.00  0.00    -0.268 OA
BRANCH   3   5
ATOM      5  CA  ASN     4      -0.398  -1.647  11.434  1.00  0.00     0.196 C 
BRANCH   5   6
ATOM      6  N   ASN     4       0.161  -2.899  10.881  1.00  0.00    -0.228 NA
ATOM      7  C   LEU     3       1.297  -3.442  11.312  1.00  0.00     0.274 C 
ATOM      8  O   LEU     3       2.004  -2.982  12.214  1.00  0.00    -0.268 OA
BRANCH   7   9
ATOM      9  CA  LEU     3       1.671  -4.766  10.646  1.00  0.00     0.186 C 
BRANCH   9  10
ATOM     10  N   LEU     3       3.140  -4.836  10.475  1.00  0.00    -0.229 NA
ATOM     11  C   GLY     2       3.732  -4.825   9.277  1.00  0.00     0.277 C 
ATOM     12  O   GLY     2       3.132  -4.602   8.236  1.00  0.00    -0.268 OA
BRANCH  11  13
ATOM     13  CA  GLY     2       5.270  -4.944   9.281  1.00  0.00     0.218 C 
BRANCH  13  14
ATOM     14  N   GLY     2       6.056  -3.866   8.633  1.00  0.00    -0.226 NA
ATOM     15  C   GLU     1       7.366  -3.991   8.390  1.00  0.00     0.289 C 
ATOM     16  O   GLU     1       7.936  -5.059   8.540  1.00  0.00    -0.268 OA
BRANCH  15  17
ATOM     17  CA  GLU     1       8.140  -2.769   7.827  1.00  0.00     0.381 C 
ATOM     18  N   GLU     1       9.472  -2.584   8.428  1.00  0.00     0.626 N 
BRANCH  17  19
ATOM     19  CB  GLU     1       8.232  -2.911   6.294  1.00  0.00     0.060 C 
BRANCH  19  20
ATOM     20  CG  GLU     1       9.614  -2.965   5.624  1.00  0.00     0.100 C 
BRANCH  20  21
ATOM     21  CD  GLU     1       9.998  -1.641   4.946  1.00  0.00     0.185 C 
ATOM     22  OE1 GLU     1      10.455  -1.681   3.789  1.00  0.00    -0.647 OA
ATOM     23  OE2 GLU     1       9.868  -0.586   5.591  1.00  0.00    -0.647 OA
ENDBRANCH  20  21
ENDBRANCH  19  20
ENDBRANCH  17  19
ENDBRANCH  15  17
ENDBRANCH  13  14
ENDBRANCH  11  13
ENDBRANCH   9  10
BRANCH   9  24
ATOM     24  CB  LEU     3       1.177  -5.919  11.528  1.00  0.00     0.034 C 
BRANCH  24  25
ATOM     25  CG  LEU     3       2.241  -6.456  12.502  1.00  0.00     0.002 C 
ATOM     26  CD1 LEU     3       1.743  -6.297  13.937  1.00  0.00     0.000 C 
ATOM     27  CD2 LEU     3       2.561  -7.928  12.218  1.00  0.00     0.000 C 
ENDBRANCH  24  25
ENDBRANCH   9  24
ENDBRANCH   7   9
ENDBRANCH   5   6
BRANCH   5  28
ATOM     28  CB  ASN     4      -0.483  -0.573  10.336  1.00  0.00     0.126 C 
BRANCH  28  29
ATOM     29  CG  ASN     4       0.891  -0.128   9.798  1.00  0.00     0.276 C 
ATOM     30  ND2 ASN     4       1.706   0.412  10.664  1.00  0.00    -0.107 N 
ATOM     31  OD1 ASN     4       1.263  -0.310   8.654  1.00  0.00    -0.269 OA
ENDBRANCH  28  29
ENDBRANCH   5  28
ENDBRANCH   3   5
ENDBRANCH   1   2
BRANCH   1  32
ATOM     32  CB  ARG     5      -4.286   0.630  13.007  1.00  0.00     0.036 C 
BRANCH  32  33
ATOM     33  CG  ARG     5      -3.449   1.720  12.336  1.00  0.00     0.029 C 
BRANCH  33  34
ATOM     34  CD  ARG     5      -4.338   2.916  12.011  1.00  0.00     0.145 C 
BRANCH  34  35
ATOM     35  NE  ARG     5      -5.762   2.526  11.871  1.00  0.00    -0.083 NA
ATOM     36  CZ  ARG     5      -6.477   2.634  10.742  1.00  0.00     0.782 C 
ATOM     37  NH2 ARG     5      -7.676   2.039  10.620  1.00  0.00     0.063 N 
ATOM     38  NH1 ARG     5      -5.980   3.221   9.663  1.00  0.00     0.063 N 
ENDBRANCH  34  35
ENDBRANCH  33  34
ENDBRANCH  32  33
ENDBRANCH   1  32
BRANCH   1  39
ATOM     39  C   ARG     5      -4.941  -1.199  11.417  1.00  0.00     0.256 C 
ATOM     40  O   ARG     5      -5.034  -0.511  10.396  1.00  0.00    -0.270 OA
ATOM     41  N   PRO     6      -5.586  -2.359  11.571  1.00  0.00    -0.312 N 
ATOM     42  CA  PRO     6      -6.589  -2.885  10.618  1.00  0.00     0.165 C 
ATOM     43  CD  PRO     6      -5.297  -3.370  12.612  1.00  0.00     0.105 C 
ATOM     44  CB  PRO     6      -7.112  -4.167  11.268  1.00  0.00     0.034 C 
ATOM     45  CG  PRO     6      -5.913  -4.659  12.066  1.00  0.00     0.027 C 
BRANCH  42  46
ATOM     46  C   PRO     6      -7.730  -1.879  10.392  1.00  0.00     0.272 C 
ATOM     47  N   SER     7      -7.965  -1.425   9.169  1.00  0.00    -0.226 NA
ATOM     48  O   PRO     6      -8.349  -1.421  11.357  1.00  0.00    -0.269 OA
BRANCH  47  49
ATOM     49  CA  SER     7      -7.222  -1.776   7.934  1.00  0.00     0.219 C 
BRANCH  49  50
ATOM     50  C   SER     7      -6.937  -0.541   7.063  1.00  0.00     0.277 C 
ATOM     51  O   SER     7      -6.779   0.550   7.601  1.00  0.00    -0.268 OA
ATOM     52  N   GLY     8      -6.646  -0.785   5.792  1.00  0.00    -0.226 NA
BRANCH  52  53
ATOM     53  CA  GLY     8      -6.554   0.302   4.783  1.00  0.00     0.218 C 
BRANCH  53  54
ATOM     54  C   GLY     8      -7.856   0.801   4.131  1.00  0.00     0.277 C 
ATOM     55  N   GLY     9      -8.844  -0.092   3.975  1.00  0.00    -0.226 NA
ATOM     56  O   GLY     8      -7.976   1.975   3.820  1.00  0.00    -0.268 OA
BRANCH  55  57
ATOM     57  CA  GLY     9     -10.133   0.235   3.331  1.00  0.00     0.218 C 
BRANCH  57  58
ATOM     58  C   GLY     9     -11.302   0.171   4.342  1.00  0.00     0.277 C 
ATOM     59  O   GLY     9     -11.405   1.042   5.196  1.00  0.00    -0.268 OA
ATOM     60  N   CYS    10     -12.102  -0.884   4.420  1.00  0.00    -0.228 NA
BRANCH  60  61
ATOM     61  CA  CYS    10     -12.025  -2.145   3.644  1.00  0.00     0.198 C 
BRANCH  61  62
ATOM     62  CB  CYS    10     -11.691  -1.904   2.167  1.00  0.00     0.103 C 
ATOM     63  SG  CYS    10     -13.053  -1.423   1.050  1.00  0.00    -0.080 SA
ENDBRANCH  61  62
BRANCH  61  64
ATOM     64  C   CYS    10     -10.941  -3.111   4.126  1.00  0.00     0.275 C 
ATOM     65  O   CYS    10     -10.933  -3.466   5.303  1.00  0.00    -0.268 OA
ATOM     66  N   GLY    11     -10.294  -3.722   3.147  1.00  0.00    -0.225 NA
BRANCH  66  67
ATOM     67  CA  GLY    11      -8.876  -4.086   3.271  1.00  0.00     0.226 C 
BRANCH  67  68
ATOM     68  C   GLY    11      -8.153  -3.210   2.235  1.00  0.00     0.211 C 
ATOM     69  O2  GLY    11      -8.814  -2.929   1.212  1.00  0.00    -0.646 OA
ATOM     70  O1  GLY    11      -7.163  -2.566   2.650  1.00  0.00    -0.646 OA
ENDBRANCH  67  68
ENDBRANCH  66  67
ENDBRANCH  61  64
ENDBRANCH  60  61
ENDBRANCH  57  58
ENDBRANCH  55  57
ENDBRANCH  53  54
ENDBRANCH  52  53
ENDBRANCH  49  50
BRANCH  49  71
ATOM     71  CB  SER     7      -7.999  -2.773   7.071  1.00  0.00     0.216 C 
ATOM     72  OG  SER     7      -8.804  -3.612   7.901  1.00  0.00    -0.218 OA
ENDBRANCH  49  71
ENDBRANCH  47  49
ENDBRANCH  42  46
ENDBRANCH   1  39
TORSDOF 33
ENDMDL
MODEL 7
REMARK VINA RESULT:      -5.6     14.196     19.901
REMARK WARNING: 32 MAX_TORS EXCEEDED!!!
REMARK  33 active torsions:
REMARK  status: ('A' for Active; 'I' for Inactive)
REMARK    1  A    between atoms: CA_2  and  C_8 
REMARK    2  A    between atoms: CA_2  and  CB_3 
REMARK    3  A    between atoms: CB_3  and  CG_4 
REMARK    4  A    between atoms: CG_4  and  CD_5 
REMARK       I    between atoms: C_8  and  N_10 
REMARK    5  A    between atoms: N_10  and  CA_11 
REMARK    6  A    between atoms: CA_11  and  C_12 
REMARK       I    between atoms: C_12  and  N_14 
REMARK    7  A    between atoms: N_14  and  CA_15 
REMARK    8  A    between atoms: CA_15  and  C_20 
REMARK    9  A    between atoms: CA_15  and  CB_16 
REMARK   10  A    between atoms: CB_16  and  CG_17 
REMARK       I    between atoms: C_20  and  N_22 
REMARK   11  A    between atoms: N_22  and  CA_23 
REMARK   12  A    between atoms: CA_23  and  CB_24 
REMARK   13  A    between atoms: CA_23  and  C_28 
REMARK   14  A    between atoms: CB_24  and  CG_25 
REMARK       I    between atoms: C_28  and  N_30 
REMARK   15  A    between atoms: N_30  and  CA_31 
REMARK   16  A    between atoms: CA_31  and  CB_32 
REMARK   17  A    between atoms: CA_31  and  C_39 
REMARK   18  A    between atoms: CB_32  and  CG_33 
REMARK   19  A    between atoms: CG_33  and  CD_34 
REMARK   20  A    between atoms: CD_34  and  NE_35 
REMARK       I    between atoms: C_39  and  N_41 
REMARK   21  A    between atoms: CA_42  and  C_46 
REMARK       I    between atoms: C_46  and  N_48 
REMARK   22  A    between atoms: N_48  and  CA_49 
REMARK   23  A    between atoms: CA_49  and  C_52 
REMARK   24  A    between atoms: CA_49  and  CB_50 
REMARK       I    between atoms: C_52  and  N_54 
REMARK   25  A    between atoms: N_54  and  CA_55 
REMARK   26  A    between atoms: CA_55  and  C_56 
REMARK       I    between atoms: C_56  and  N_58 
REMARK   27  A    between atoms: N_58  and  CA_59 
REMARK   28  A    between atoms: CA_59  and  C_60 
REMARK       I    between atoms: C_60  and  N_62 
REMARK   29  A    between atoms: N_62  and  CA_63 
REMARK   30  A    between atoms: CA_63  and  CB_64 
REMARK   31  A    between atoms: CA_63  and  C_66 
REMARK       I    between atoms: C_66  and  N_68 
REMARK   32  A    between atoms: N_68  and  CA_69 
REMARK   33  A    between atoms: CA_69  and  C_70 
ROOT
ATOM      1  CA  ARG     5      13.375  -1.449   4.550  1.00  0.00     0.185 C 
ENDROOT
BRANCH   1   2
ATOM      2  N   ARG     5      14.062  -2.483   3.754  1.00  0.00    -0.229 NA
ATOM      3  C   ASN     4      15.190  -3.091   4.087  1.00  0.00     0.275 C 
ATOM      4  O   ASN     4      15.946  -2.705   4.973  1.00  0.00    -0.268 OA
BRANCH   3   5
ATOM      5  CA  ASN     4      15.636  -4.133   3.041  1.00  0.00     0.196 C 
BRANCH   5   6
ATOM      6  N   ASN     4      15.552  -5.500   3.596  1.00  0.00    -0.228 NA
ATOM      7  C   LEU     3      16.558  -6.090   4.237  1.00  0.00     0.274 C 
ATOM      8  O   LEU     3      17.660  -5.575   4.449  1.00  0.00    -0.268 OA
BRANCH   7   9
ATOM      9  CA  LEU     3      16.248  -7.484   4.780  1.00  0.00     0.186 C 
BRANCH   9  10
ATOM     10  N   LEU     3      15.715  -7.372   6.157  1.00  0.00    -0.229 NA
ATOM     11  C   GLY     2      16.465  -7.576   7.243  1.00  0.00     0.277 C 
ATOM     12  O   GLY     2      17.678  -7.718   7.203  1.00  0.00    -0.268 OA
BRANCH  11  13
ATOM     13  CA  GLY     2      15.738  -7.455   8.599  1.00  0.00     0.218 C 
BRANCH  13  14
ATOM     14  N   GLY     2      14.292  -7.781   8.649  1.00  0.00    -0.226 NA
ATOM     15  C   GLU     1      13.352  -6.830   8.678  1.00  0.00     0.289 C 
ATOM     16  O   GLU     1      13.635  -5.657   8.498  1.00  0.00    -0.268 OA
BRANCH  15  17
ATOM     17  CA  GLU     1      11.869  -7.252   8.859  1.00  0.00     0.381 C 
ATOM     18  N   GLU     1      11.698  -8.671   9.218  1.00  0.00     0.626 N 
BRANCH  17  19
ATOM     19  CB  GLU     1      11.220  -6.327   9.909  1.00  0.00     0.060 C 
BRANCH  19  20
ATOM     20  CG  GLU     1      11.467  -6.591  11.402  1.00  0.00     0.100 C 
BRANCH  20  21
ATOM     21  CD  GLU     1      12.508  -5.641  12.011  1.00  0.00     0.185 C 
ATOM     22  OE1 GLU     1      12.155  -4.483  12.299  1.00  0.00    -0.647 OA
ATOM     23  OE2 GLU     1      13.671  -6.056  12.163  1.00  0.00    -0.647 OA
ENDBRANCH  20  21
ENDBRANCH  19  20
ENDBRANCH  17  19
ENDBRANCH  15  17
ENDBRANCH  13  14
ENDBRANCH  11  13
ENDBRANCH   9  10
BRANCH   9  24
ATOM     24  CB  LEU     3      15.220  -8.155   3.860  1.00  0.00     0.034 C 
BRANCH  24  25
ATOM     25  CG  LEU     3      15.275  -9.693   3.883  1.00  0.00     0.002 C 
ATOM     26  CD1 LEU     3      16.611 -10.146   4.469  1.00  0.00     0.000 C 
ATOM     27  CD2 LEU     3      14.118 -10.276   4.702  1.00  0.00     0.000 C 
ENDBRANCH  24  25
ENDBRANCH   9  24
ENDBRANCH   7   9
ENDBRANCH   5   6
BRANCH   5  28
ATOM     28  CB  ASN     4      14.802  -4.031   1.753  1.00  0.00     0.126 C 
BRANCH  28  29
ATOM     29  CG  ASN     4      15.618  -3.601   0.518  1.00  0.00     0.276 C 
ATOM     30  ND2 ASN     4      16.254  -2.464   0.611  1.00  0.00    -0.107 N 
ATOM     31  OD1 ASN     4      15.746  -4.282  -0.481  1.00  0.00    -0.269 OA
ENDBRANCH  28  29
ENDBRANCH   5  28
ENDBRANCH   3   5
ENDBRANCH   1   2
BRANCH   1  32
ATOM     32  CB  ARG     5      13.763  -0.049   4.063  1.00  0.00     0.036 C 
BRANCH  32  33
ATOM     33  CG  ARG     5      14.762  -0.051   2.905  1.00  0.00     0.029 C 
BRANCH  33  34
ATOM     34  CD  ARG     5      14.436   1.093   1.951  1.00  0.00     0.145 C 
BRANCH  34  35
ATOM     35  NE  ARG     5      13.036   1.028   1.466  1.00  0.00    -0.083 NA
ATOM     36  CZ  ARG     5      12.641   0.394   0.352  1.00  0.00     0.782 C 
ATOM     37  NH2 ARG     5      11.340   0.167   0.107  1.00  0.00     0.063 N 
ATOM     38  NH1 ARG     5      13.518  -0.143  -0.484  1.00  0.00     0.063 N 
ENDBRANCH  34  35
ENDBRANCH  33  34
ENDBRANCH  32  33
ENDBRANCH   1  32
BRANCH   1  39
ATOM     39  C   ARG     5      11.851  -1.633   4.428  1.00  0.00     0.256 C 
ATOM     40  O   ARG     5      11.279  -1.326   3.378  1.00  0.00    -0.270 OA
ATOM     41  N   PRO     6      11.223  -2.223   5.450  1.00  0.00    -0.312 N 
ATOM     42  CA  PRO     6       9.761  -2.446   5.510  1.00  0.00     0.165 C 
ATOM     43  CD  PRO     6      11.883  -2.885   6.596  1.00  0.00     0.105 C 
ATOM     44  CB  PRO     6       9.513  -3.048   6.893  1.00  0.00     0.034 C 
ATOM     45  CG  PRO     6      10.805  -3.802   7.173  1.00  0.00     0.027 C 
BRANCH  42  46
ATOM     46  C   PRO     6       8.985  -1.129   5.338  1.00  0.00     0.272 C 
ATOM     47  N   SER     7       8.917  -0.276   6.351  1.00  0.00    -0.226 NA
ATOM     48  O   PRO     6       8.344  -0.920   4.303  1.00  0.00    -0.269 OA
BRANCH  47  49
ATOM     49  CA  SER     7       9.517  -0.447   7.696  1.00  0.00     0.219 C 
BRANCH  49  50
ATOM     50  C   SER     7       8.595   0.082   8.809  1.00  0.00     0.277 C 
ATOM     51  O   SER     7       8.308   1.274   8.835  1.00  0.00    -0.268 OA
ATOM     52  N   GLY     8       7.980  -0.841   9.535  1.00  0.00    -0.226 NA
BRANCH  52  53
ATOM     53  CA  GLY     8       7.228  -0.498  10.772  1.00  0.00     0.218 C 
BRANCH  53  54
ATOM     54  C   GLY     8       5.893  -1.218  11.033  1.00  0.00     0.277 C 
ATOM     55  N   GLY     9       4.850  -0.872  10.265  1.00  0.00    -0.226 NA
ATOM     56  O   GLY     8       5.825  -2.093  11.880  1.00  0.00    -0.268 OA
BRANCH  55  57
ATOM     57  CA  GLY     9       3.501  -1.450  10.430  1.00  0.00     0.218 C 
BRANCH  57  58
ATOM     58  C   GLY     9       2.979  -2.056   9.105  1.00  0.00     0.277 C 
ATOM     59  O   GLY     9       2.114  -1.463   8.474  1.00  0.00    -0.268 OA
ATOM     60  N   CYS    10       3.317  -3.277   8.714  1.00  0.00    -0.228 NA
BRANCH  60  61
ATOM     61  CA  CYS    10       4.167  -4.260   9.428  1.00  0.00     0.198 C 
BRANCH  61  62
ATOM     62  CB  CYS    10       3.741  -5.708   9.157  1.00  0.00     0.103 C 
ATOM     63  SG  CYS    10       2.404  -5.993   7.948  1.00  0.00    -0.080 SA
ENDBRANCH  61  62
BRANCH  61  64
ATOM     64  C   CYS    10       5.643  -4.216   9.028  1.00  0.00     0.275 C 
ATOM     65  O   CYS    10       6.015  -3.397   8.190  1.00  0.00    -0.268 OA
ATOM     66  N   GLY    11       6.443  -4.863   9.860  1.00  0.00    -0.225 NA
BRANCH  66  67
ATOM     67  CA  GLY    11       7.656  -5.545   9.387  1.00  0.00     0.226 C 
BRANCH  67  68
ATOM     68  C   GLY    11       7.424  -7.029   9.714  1.00  0.00     0.211 C 
ATOM     69  O2  GLY    11       8.095  -7.840   9.040  1.00  0.00    -0.646 OA
ATOM     70  O1  GLY    11       6.905  -7.276  10.827  1.00  0.00    -0.646 OA
ENDBRANCH  67  68
ENDBRANCH  66  67
ENDBRANCH  61  64
ENDBRANCH  60  61
ENDBRANCH  57  58
ENDBRANCH  55  57
ENDBRANCH  53  54
ENDBRANCH  52  53
ENDBRANCH  49  50
BRANCH  49  71
ATOM     71  CB  SER     7      10.851   0.294   7.818  1.00  0.00     0.216 C 
ATOM     72  OG  SER     7      11.572  -0.187   8.954  1.00  0.00    -0.218 OA
ENDBRANCH  49  71
ENDBRANCH  47  49
ENDBRANCH  42  46
ENDBRANCH   1  39
TORSDOF 33
ENDMDL
MODEL 8
REMARK VINA RESULT:      -5.6      5.483     13.277
REMARK WARNING: 32 MAX_TORS EXCEEDED!!!
REMARK  33 active torsions:
REMARK  status: ('A' for Active; 'I' for Inactive)
REMARK    1  A    between atoms: CA_2  and  C_8 
REMARK    2  A    between atoms: CA_2  and  CB_3 
REMARK    3  A    between atoms: CB_3  and  CG_4 
REMARK    4  A    between atoms: CG_4  and  CD_5 
REMARK       I    between atoms: C_8  and  N_10 
REMARK    5  A    between atoms: N_10  and  CA_11 
REMARK    6  A    between atoms: CA_11  and  C_12 
REMARK       I    between atoms: C_12  and  N_14 
REMARK    7  A    between atoms: N_14  and  CA_15 
REMARK    8  A    between atoms: CA_15  and  C_20 
REMARK    9  A    between atoms: CA_15  and  CB_16 
REMARK   10  A    between atoms: CB_16  and  CG_17 
REMARK       I    between atoms: C_20  and  N_22 
REMARK   11  A    between atoms: N_22  and  CA_23 
REMARK   12  A    between atoms: CA_23  and  CB_24 
REMARK   13  A    between atoms: CA_23  and  C_28 
REMARK   14  A    between atoms: CB_24  and  CG_25 
REMARK       I    between atoms: C_28  and  N_30 
REMARK   15  A    between atoms: N_30  and  CA_31 
REMARK   16  A    between atoms: CA_31  and  CB_32 
REMARK   17  A    between atoms: CA_31  and  C_39 
REMARK   18  A    between atoms: CB_32  and  CG_33 
REMARK   19  A    between atoms: CG_33  and  CD_34 
REMARK   20  A    between atoms: CD_34  and  NE_35 
REMARK       I    between atoms: C_39  and  N_41 
REMARK   21  A    between atoms: CA_42  and  C_46 
REMARK       I    between atoms: C_46  and  N_48 
REMARK   22  A    between atoms: N_48  and  CA_49 
REMARK   23  A    between atoms: CA_49  and  C_52 
REMARK   24  A    between atoms: CA_49  and  CB_50 
REMARK       I    between atoms: C_52  and  N_54 
REMARK   25  A    between atoms: N_54  and  CA_55 
REMARK   26  A    between atoms: CA_55  and  C_56 
REMARK       I    between atoms: C_56  and  N_58 
REMARK   27  A    between atoms: N_58  and  CA_59 
REMARK   28  A    between atoms: CA_59  and  C_60 
REMARK       I    between atoms: C_60  and  N_62 
REMARK   29  A    between atoms: N_62  and  CA_63 
REMARK   30  A    between atoms: CA_63  and  CB_64 
REMARK   31  A    between atoms: CA_63  and  C_66 
REMARK       I    between atoms: C_66  and  N_68 
REMARK   32  A    between atoms: N_68  and  CA_69 
REMARK   33  A    between atoms: CA_69  and  C_70 
ROOT
ATOM      1  CA  ARG     5      -5.019 -19.700   5.292  1.00  0.00     0.185 C 
ENDROOT
BRANCH   1   2
ATOM      2  N   ARG     5      -3.782 -19.013   5.708  1.00  0.00    -0.229 NA
ATOM      3  C   ASN     4      -2.890 -19.482   6.567  1.00  0.00     0.275 C 
ATOM      4  O   ASN     4      -3.090 -20.430   7.320  1.00  0.00    -0.268 OA
BRANCH   3   5
ATOM      5  CA  ASN     4      -1.701 -18.522   6.775  1.00  0.00     0.196 C 
BRANCH   5   6
ATOM      6  N   ASN     4      -2.115 -17.343   7.565  1.00  0.00    -0.228 NA
ATOM      7  C   LEU     3      -1.915 -16.090   7.163  1.00  0.00     0.274 C 
ATOM      8  O   LEU     3      -1.378 -15.765   6.100  1.00  0.00    -0.268 OA
BRANCH   7   9
ATOM      9  CA  LEU     3      -2.466 -15.017   8.102  1.00  0.00     0.186 C 
BRANCH   9  10
ATOM     10  N   LEU     3      -3.901 -15.271   8.357  1.00  0.00    -0.229 NA
ATOM     11  C   GLY     2      -4.877 -14.562   7.782  1.00  0.00     0.277 C 
ATOM     12  O   GLY     2      -4.679 -13.755   6.886  1.00  0.00    -0.268 OA
BRANCH  11  13
ATOM     13  CA  GLY     2      -6.317 -14.938   8.190  1.00  0.00     0.218 C 
BRANCH  13  14
ATOM     14  N   GLY     2      -6.518 -15.629   9.486  1.00  0.00    -0.226 NA
ATOM     15  C   GLU     1      -7.511 -16.506   9.676  1.00  0.00     0.289 C 
ATOM     16  O   GLU     1      -8.192 -16.899   8.744  1.00  0.00    -0.268 OA
BRANCH  15  17
ATOM     17  CA  GLU     1      -7.730 -17.088  11.098  1.00  0.00     0.381 C 
ATOM     18  N   GLU     1      -8.688 -18.207  11.138  1.00  0.00     0.626 N 
BRANCH  17  19
ATOM     19  CB  GLU     1      -6.361 -17.502  11.676  1.00  0.00     0.060 C 
BRANCH  19  20
ATOM     20  CG  GLU     1      -5.866 -18.944  11.484  1.00  0.00     0.100 C 
BRANCH  20  21
ATOM     21  CD  GLU     1      -5.253 -19.184  10.097  1.00  0.00     0.185 C 
ATOM     22  OE1 GLU     1      -4.337 -18.432   9.718  1.00  0.00    -0.647 OA
ATOM     23  OE2 GLU     1      -5.716 -20.099   9.395  1.00  0.00    -0.647 OA
ENDBRANCH  20  21
ENDBRANCH  19  20
ENDBRANCH  17  19
ENDBRANCH  15  17
ENDBRANCH  13  14
ENDBRANCH  11  13
ENDBRANCH   9  10
BRANCH   9  24
ATOM     24  CB  LEU     3      -1.672 -15.054   9.413  1.00  0.00     0.034 C 
BRANCH  24  25
ATOM     25  CG  LEU     3      -1.007 -13.714   9.776  1.00  0.00     0.002 C 
ATOM     26  CD1 LEU     3      -1.875 -12.563   9.272  1.00  0.00     0.000 C 
ATOM     27  CD2 LEU     3      -0.799 -13.590  11.290  1.00  0.00     0.000 C 
ENDBRANCH  24  25
ENDBRANCH   9  24
ENDBRANCH   7   9
ENDBRANCH   5   6
BRANCH   5  28
ATOM     28  CB  ASN     4      -0.518 -19.229   7.456  1.00  0.00     0.126 C 
BRANCH  28  29
ATOM     29  CG  ASN     4       0.630 -19.585   6.491  1.00  0.00     0.276 C 
ATOM     30  ND2 ASN     4       0.417 -20.588   5.681  1.00  0.00    -0.107 N 
ATOM     31  OD1 ASN     4       1.667 -18.954   6.408  1.00  0.00    -0.269 OA
ENDBRANCH  28  29
ENDBRANCH   5  28
ENDBRANCH   3   5
ENDBRANCH   1   2
BRANCH   1  32
ATOM     32  CB  ARG     5      -5.898 -18.764   4.455  1.00  0.00     0.036 C 
BRANCH  32  33
ATOM     33  CG  ARG     5      -6.320 -17.490   5.189  1.00  0.00     0.029 C 
BRANCH  33  34
ATOM     34  CD  ARG     5      -7.484 -16.840   4.449  1.00  0.00     0.145 C 
BRANCH  34  35
ATOM     35  NE  ARG     5      -8.649 -16.611   5.338  1.00  0.00    -0.083 NA
ATOM     36  CZ  ARG     5      -9.273 -15.434   5.494  1.00  0.00     0.782 C 
ATOM     37  NH2 ARG     5     -10.459 -15.355   6.118  1.00  0.00     0.063 N 
ATOM     38  NH1 ARG     5      -8.808 -14.327   4.932  1.00  0.00     0.063 N 
ENDBRANCH  34  35
ENDBRANCH  33  34
ENDBRANCH  32  33
ENDBRANCH   1  32
BRANCH   1  39
ATOM     39  C   ARG     5      -4.661 -20.948   4.464  1.00  0.00     0.256 C 
ATOM     40  O   ARG     5      -3.604 -20.978   3.826  1.00  0.00    -0.270 OA
ATOM     41  N   PRO     6      -5.480 -21.999   4.558  1.00  0.00    -0.312 N 
ATOM     42  CA  PRO     6      -5.303 -23.262   3.806  1.00  0.00     0.165 C 
ATOM     43  CD  PRO     6      -6.587 -22.140   5.529  1.00  0.00     0.105 C 
ATOM     44  CB  PRO     6      -6.527 -24.106   4.164  1.00  0.00     0.034 C 
ATOM     45  CG  PRO     6      -6.859 -23.644   5.575  1.00  0.00     0.027 C 
BRANCH  42  46
ATOM     46  C   PRO     6      -5.236 -23.007   2.290  1.00  0.00     0.272 C 
ATOM     47  N   SER     7      -4.480 -23.789   1.532  1.00  0.00    -0.226 NA
ATOM     48  O   PRO     6      -5.796 -22.020   1.805  1.00  0.00    -0.269 OA
BRANCH  47  49
ATOM     49  CA  SER     7      -3.645 -24.927   1.986  1.00  0.00     0.219 C 
BRANCH  49  50
ATOM     50  C   SER     7      -2.189 -24.503   2.249  1.00  0.00     0.277 C 
ATOM     51  O   SER     7      -1.845 -23.352   2.003  1.00  0.00    -0.268 OA
ATOM     52  N   GLY     8      -1.456 -25.358   2.950  1.00  0.00    -0.226 NA
BRANCH  52  53
ATOM     53  CA  GLY     8       0.013 -25.193   3.105  1.00  0.00     0.218 C 
BRANCH  53  54
ATOM     54  C   GLY     8       0.532 -24.418   4.329  1.00  0.00     0.277 C 
ATOM     55  N   GLY     9       0.053 -24.777   5.529  1.00  0.00    -0.226 NA
ATOM     56  O   GLY     8       1.376 -23.548   4.191  1.00  0.00    -0.268 OA
BRANCH  55  57
ATOM     57  CA  GLY     9       0.432 -24.096   6.784  1.00  0.00     0.218 C 
BRANCH  57  58
ATOM     58  C   GLY     9       1.762 -24.649   7.349  1.00  0.00     0.277 C 
ATOM     59  O   GLY     9       1.857 -25.843   7.601  1.00  0.00    -0.268 OA
ATOM     60  N   CYS    10       2.748 -23.847   7.724  1.00  0.00    -0.228 NA
BRANCH  60  61
ATOM     61  CA  CYS    10       2.769 -22.363   7.722  1.00  0.00     0.198 C 
BRANCH  61  62
ATOM     62  CB  CYS    10       3.017 -21.780   9.118  1.00  0.00     0.103 C 
ATOM     63  SG  CYS    10       2.471 -22.753  10.562  1.00  0.00    -0.080 SA
ENDBRANCH  61  62
BRANCH  61  64
ATOM     64  C   CYS    10       3.871 -21.755   6.852  1.00  0.00     0.275 C 
ATOM     65  O   CYS    10       3.646 -21.534   5.664  1.00  0.00    -0.268 OA
ATOM     66  N   GLY    11       4.870 -21.232   7.544  1.00  0.00    -0.225 NA
BRANCH  66  67
ATOM     67  CA  GLY    11       6.250 -21.252   7.036  1.00  0.00     0.226 C 
BRANCH  67  68
ATOM     68  C   GLY    11       6.744 -19.805   7.188  1.00  0.00     0.211 C 
ATOM     69  O2  GLY    11       7.471 -19.384   6.261  1.00  0.00    -0.646 OA
ATOM     70  O1  GLY    11       6.102 -19.081   7.983  1.00  0.00    -0.646 OA
ENDBRANCH  67  68
ENDBRANCH  66  67
ENDBRANCH  61  64
ENDBRANCH  60  61
ENDBRANCH  57  58
ENDBRANCH  55  57
ENDBRANCH  53  54
ENDBRANCH  52  53
ENDBRANCH  49  50
BRANCH  49  71
ATOM     71  CB  SER     7      -3.612 -26.053   0.951  1.00  0.00     0.216 C 
ATOM     72  OG  SER     7      -4.294 -27.201   1.459  1.00  0.00    -0.218 OA
ENDBRANCH  49  71
ENDBRANCH  47  49
ENDBRANCH  42  46
ENDBRANCH   1  39
TORSDOF 33
ENDMDL
MODEL 9
REMARK VINA RESULT:      -5.6      6.450     13.835
REMARK WARNING: 32 MAX_TORS EXCEEDED!!!
REMARK  33 active torsions:
REMARK  status: ('A' for Active; 'I' for Inactive)
REMARK    1  A    between atoms: CA_2  and  C_8 
REMARK    2  A    between atoms: CA_2  and  CB_3 
REMARK    3  A    between atoms: CB_3  and  CG_4 
REMARK    4  A    between atoms: CG_4  and  CD_5 
REMARK       I    between atoms: C_8  and  N_10 
REMARK    5  A    between atoms: N_10  and  CA_11 
REMARK    6  A    between atoms: CA_11  and  C_12 
REMARK       I    between atoms: C_12  and  N_14 
REMARK    7  A    between atoms: N_14  and  CA_15 
REMARK    8  A    between atoms: CA_15  and  C_20 
REMARK    9  A    between atoms: CA_15  and  CB_16 
REMARK   10  A    between atoms: CB_16  and  CG_17 
REMARK       I    between atoms: C_20  and  N_22 
REMARK   11  A    between atoms: N_22  and  CA_23 
REMARK   12  A    between atoms: CA_23  and  CB_24 
REMARK   13  A    between atoms: CA_23  and  C_28 
REMARK   14  A    between atoms: CB_24  and  CG_25 
REMARK       I    between atoms: C_28  and  N_30 
REMARK   15  A    between atoms: N_30  and  CA_31 
REMARK   16  A    between atoms: CA_31  and  CB_32 
REMARK   17  A    between atoms: CA_31  and  C_39 
REMARK   18  A    between atoms: CB_32  and  CG_33 
REMARK   19  A    between atoms: CG_33  and  CD_34 
REMARK   20  A    between atoms: CD_34  and  NE_35 
REMARK       I    between atoms: C_39  and  N_41 
REMARK   21  A    between atoms: CA_42  and  C_46 
REMARK       I    between atoms: C_46  and  N_48 
REMARK   22  A    between atoms: N_48  and  CA_49 
REMARK   23  A    between atoms: CA_49  and  C_52 
REMARK   24  A    between atoms: CA_49  and  CB_50 
REMARK       I    between atoms: C_52  and  N_54 
REMARK   25  A    between atoms: N_54  and  CA_55 
REMARK   26  A    between atoms: CA_55  and  C_56 
REMARK       I    between atoms: C_56  and  N_58 
REMARK   27  A    between atoms: N_58  and  CA_59 
REMARK   28  A    between atoms: CA_59  and  C_60 
REMARK       I    between atoms: C_60  and  N_62 
REMARK   29  A    between atoms: N_62  and  CA_63 
REMARK   30  A    between atoms: CA_63  and  CB_64 
REMARK   31  A    between atoms: CA_63  and  C_66 
REMARK       I    between atoms: C_66  and  N_68 
REMARK   32  A    between atoms: N_68  and  CA_69 
REMARK   33  A    between atoms: CA_69  and  C_70 
ROOT
ATOM      1  CA  ARG     5      -9.759  -3.841   7.096  1.00  0.00     0.185 C 
ENDROOT
BRANCH   1   2
ATOM      2  N   ARG     5      -9.336  -4.829   6.087  1.00  0.00    -0.229 NA
ATOM      3  C   ASN     4     -10.144  -5.536   5.312  1.00  0.00     0.275 C 
ATOM      4  O   ASN     4     -11.351  -5.653   5.500  1.00  0.00    -0.268 OA
BRANCH   3   5
ATOM      5  CA  ASN     4      -9.381  -6.471   4.352  1.00  0.00     0.196 C 
BRANCH   5   6
ATOM      6  N   ASN     4      -9.932  -7.842   4.411  1.00  0.00    -0.228 NA
ATOM      7  C   LEU     3      -9.184  -8.934   4.274  1.00  0.00     0.274 C 
ATOM      8  O   LEU     3      -7.962  -8.937   4.092  1.00  0.00    -0.268 OA
BRANCH   7   9
ATOM      9  CA  LEU     3      -9.939 -10.255   4.422  1.00  0.00     0.186 C 
BRANCH   9  10
ATOM     10  N   LEU     3      -9.015 -11.384   4.173  1.00  0.00    -0.229 NA
ATOM     11  C   GLY     2      -9.435 -12.593   3.789  1.00  0.00     0.277 C 
ATOM     12  O   GLY     2     -10.588 -12.829   3.462  1.00  0.00    -0.268 OA
BRANCH  11  13
ATOM     13  CA  GLY     2      -8.339 -13.665   3.611  1.00  0.00     0.218 C 
BRANCH  13  14
ATOM     14  N   GLY     2      -8.014 -14.531   4.770  1.00  0.00    -0.226 NA
ATOM     15  C   GLU     1      -6.855 -14.427   5.431  1.00  0.00     0.289 C 
ATOM     16  O   GLU     1      -6.086 -13.506   5.214  1.00  0.00    -0.268 OA
BRANCH  15  17
ATOM     17  CA  GLU     1      -6.540 -15.456   6.550  1.00  0.00     0.381 C 
ATOM     18  N   GLU     1      -6.075 -16.759   6.042  1.00  0.00     0.626 N 
BRANCH  17  19
ATOM     19  CB  GLU     1      -5.511 -14.831   7.514  1.00  0.00     0.060 C 
BRANCH  19  20
ATOM     20  CG  GLU     1      -4.259 -15.633   7.903  1.00  0.00     0.100 C 
BRANCH  20  21
ATOM     21  CD  GLU     1      -2.960 -14.998   7.382  1.00  0.00     0.185 C 
ATOM     22  OE1 GLU     1      -2.711 -13.820   7.696  1.00  0.00    -0.647 OA
ATOM     23  OE2 GLU     1      -2.226 -15.676   6.643  1.00  0.00    -0.647 OA
ENDBRANCH  20  21
ENDBRANCH  19  20
ENDBRANCH  17  19
ENDBRANCH  15  17
ENDBRANCH  13  14
ENDBRANCH  11  13
ENDBRANCH   9  10
BRANCH   9  24
ATOM     24  CB  LEU     3     -10.517 -10.336   5.840  1.00  0.00     0.034 C 
BRANCH  24  25
ATOM     25  CG  LEU     3     -12.044 -10.522   5.879  1.00  0.00     0.002 C 
ATOM     26  CD1 LEU     3     -12.623 -10.271   4.488  1.00  0.00     0.000 C 
ATOM     27  CD2 LEU     3     -12.420 -11.929   6.357  1.00  0.00     0.000 C 
ENDBRANCH  24  25
ENDBRANCH   9  24
ENDBRANCH   7   9
ENDBRANCH   5   6
BRANCH   5  28
ATOM     28  CB  ASN     4      -9.418  -5.946   2.906  1.00  0.00     0.126 C 
BRANCH  28  29
ATOM     29  CG  ASN     4     -10.781  -6.136   2.213  1.00  0.00     0.276 C 
ATOM     30  ND2 ASN     4     -11.570  -5.095   2.189  1.00  0.00    -0.107 N 
ATOM     31  OD1 ASN     4     -11.118  -7.159   1.648  1.00  0.00    -0.269 OA
ENDBRANCH  28  29
ENDBRANCH   5  28
ENDBRANCH   3   5
ENDBRANCH   1   2
BRANCH   1  32
ATOM     32  CB  ARG     5     -10.029  -4.528   8.440  1.00  0.00     0.036 C 
BRANCH  32  33
ATOM     33  CG  ARG     5      -8.786  -5.153   9.076  1.00  0.00     0.029 C 
BRANCH  33  34
ATOM     34  CD  ARG     5      -9.135  -5.672  10.467  1.00  0.00     0.145 C 
BRANCH  34  35
ATOM     35  NE  ARG     5      -7.978  -5.603  11.392  1.00  0.00    -0.083 NA
ATOM     36  CZ  ARG     5      -7.847  -6.334  12.509  1.00  0.00     0.782 C 
ATOM     37  NH2 ARG     5      -6.674  -6.401  13.161  1.00  0.00     0.063 N 
ATOM     38  NH1 ARG     5      -8.826  -7.114  12.943  1.00  0.00     0.063 N 
ENDBRANCH  34  35
ENDBRANCH  33  34
ENDBRANCH  32  33
ENDBRANCH   1  32
BRANCH   1  39
ATOM     39  C   ARG     5      -8.657  -2.780   7.272  1.00  0.00     0.256 C 
ATOM     40  O   ARG     5      -7.540  -2.968   6.779  1.00  0.00    -0.270 OA
ATOM     41  N   PRO     6      -8.999  -1.638   7.876  1.00  0.00    -0.312 N 
ATOM     42  CA  PRO     6      -8.058  -0.530   8.155  1.00  0.00     0.165 C 
ATOM     43  CD  PRO     6     -10.379  -1.227   8.214  1.00  0.00     0.105 C 
ATOM     44  CB  PRO     6      -8.880   0.495   8.937  1.00  0.00     0.034 C 
ATOM     45  CG  PRO     6     -10.287   0.289   8.395  1.00  0.00     0.027 C 
BRANCH  42  46
ATOM     46  C   PRO     6      -6.853  -1.012   8.981  1.00  0.00     0.272 C 
ATOM     47  N   SER     7      -5.636  -0.594   8.661  1.00  0.00    -0.226 NA
ATOM     48  O   PRO     6      -7.009  -1.863   9.862  1.00  0.00    -0.269 OA
BRANCH  47  49
ATOM     49  CA  SER     7      -5.274   0.317   7.549  1.00  0.00     0.219 C 
BRANCH  49  50
ATOM     50  C   SER     7      -5.128  -0.434   6.214  1.00  0.00     0.277 C 
ATOM     51  O   SER     7      -4.598  -1.541   6.202  1.00  0.00    -0.268 OA
ATOM     52  N   GLY     8      -5.803   0.070   5.190  1.00  0.00    -0.226 NA
BRANCH  52  53
ATOM     53  CA  GLY     8      -5.600  -0.412   3.798  1.00  0.00     0.218 C 
BRANCH  53  54
ATOM     54  C   GLY     8      -6.518  -1.531   3.277  1.00  0.00     0.277 C 
ATOM     55  N   GLY     9      -7.769  -1.571   3.758  1.00  0.00    -0.226 NA
ATOM     56  O   GLY     8      -6.115  -2.310   2.428  1.00  0.00    -0.268 OA
BRANCH  55  57
ATOM     57  CA  GLY     9      -8.747  -2.611   3.378  1.00  0.00     0.218 C 
BRANCH  57  58
ATOM     58  C   GLY     9      -9.497  -2.234   2.078  1.00  0.00     0.277 C 
ATOM     59  O   GLY     9      -9.153  -2.740   1.018  1.00  0.00    -0.268 OA
ATOM     60  N   CYS    10     -10.392  -1.257   2.047  1.00  0.00    -0.228 NA
BRANCH  60  61
ATOM     61  CA  CYS    10     -10.803  -0.360   3.155  1.00  0.00     0.198 C 
BRANCH  61  62
ATOM     62  CB  CYS    10     -10.935   1.100   2.708  1.00  0.00     0.103 C 
ATOM     63  SG  CYS    10     -10.974   1.445   0.915  1.00  0.00    -0.080 SA
ENDBRANCH  61  62
BRANCH  61  64
ATOM     64  C   CYS    10     -12.167  -0.699   3.760  1.00  0.00     0.275 C 
ATOM     65  O   CYS    10     -13.171  -0.134   3.331  1.00  0.00    -0.268 OA
ATOM     66  N   GLY    11     -12.172  -1.808   4.482  1.00  0.00    -0.225 NA
BRANCH  66  67
ATOM     67  CA  GLY    11     -13.044  -1.957   5.655  1.00  0.00     0.226 C 
BRANCH  67  68
ATOM     68  C   GLY    11     -14.065  -3.032   5.252  1.00  0.00     0.211 C 
ATOM     69  O2  GLY    11     -13.800  -3.661   4.205  1.00  0.00    -0.646 OA
ATOM     70  O1  GLY    11     -14.833  -3.433   6.156  1.00  0.00    -0.646 OA
ENDBRANCH  67  68
ENDBRANCH  66  67
ENDBRANCH  61  64
ENDBRANCH  60  61
ENDBRANCH  57  58
ENDBRANCH  55  57
ENDBRANCH  53  54
ENDBRANCH  52  53
ENDBRANCH  49  50
BRANCH  49  71
ATOM     71  CB  SER     7      -3.950   1.036   7.814  1.00  0.00     0.216 C 
ATOM     72  OG  SER     7      -3.373   1.466   6.581  1.00  0.00    -0.218 OA
ENDBRANCH  49  71
ENDBRANCH  47  49
ENDBRANCH  42  46
ENDBRANCH   1  39
TORSDOF 33
ENDMDL
