REMARK WARNING: 32 MAX_TORS EXCEEDED!!!
REMARK  33 active torsions:
REMARK  status: ('A' for Active; 'I' for Inactive)
REMARK    1  A    between atoms: CA_2  and  C_8 
REMARK    2  A    between atoms: CA_2  and  CB_3 
REMARK    3  A    between atoms: CB_3  and  CG_4 
REMARK    4  A    between atoms: CG_4  and  CD_5 
REMARK       I    between atoms: C_8  and  N_10 
REMARK    5  A    between atoms: N_10  and  CA_11 
REMARK    6  A    between atoms: CA_11  and  C_12 
REMARK       I    between atoms: C_12  and  N_14 
REMARK    7  A    between atoms: N_14  and  CA_15 
REMARK    8  A    between atoms: CA_15  and  C_20 
REMARK    9  A    between atoms: CA_15  and  CB_16 
REMARK   10  A    between atoms: CB_16  and  CG_17 
REMARK       I    between atoms: C_20  and  N_22 
REMARK   11  A    between atoms: N_22  and  CA_23 
REMARK   12  A    between atoms: CA_23  and  CB_24 
REMARK   13  A    between atoms: CA_23  and  C_28 
REMARK   14  A    between atoms: CB_24  and  CG_25 
REMARK       I    between atoms: C_28  and  N_30 
REMARK   15  A    between atoms: N_30  and  CA_31 
REMARK   16  A    between atoms: CA_31  and  CB_32 
REMARK   17  A    between atoms: CA_31  and  C_39 
REMARK   18  A    between atoms: CB_32  and  CG_33 
REMARK   19  A    between atoms: CG_33  and  CD_34 
REMARK   20  A    between atoms: CD_34  and  NE_35 
REMARK       I    between atoms: C_39  and  N_41 
REMARK   21  A    between atoms: CA_42  and  C_46 
REMARK       I    between atoms: C_46  and  N_48 
REMARK   22  A    between atoms: N_48  and  CA_49 
REMARK   23  A    between atoms: CA_49  and  C_52 
REMARK   24  A    between atoms: CA_49  and  CB_50 
REMARK       I    between atoms: C_52  and  N_54 
REMARK   25  A    between atoms: N_54  and  CA_55 
REMARK   26  A    between atoms: CA_55  and  C_56 
REMARK       I    between atoms: C_56  and  N_58 
REMARK   27  A    between atoms: N_58  and  CA_59 
REMARK   28  A    between atoms: CA_59  and  C_60 
REMARK       I    between atoms: C_60  and  N_62 
REMARK   29  A    between atoms: N_62  and  CA_63 
REMARK   30  A    between atoms: CA_63  and  CB_64 
REMARK   31  A    between atoms: CA_63  and  C_66 
REMARK       I    between atoms: C_66  and  N_68 
REMARK   32  A    between atoms: N_68  and  CA_69 
REMARK   33  A    between atoms: CA_69  and  C_70 
ROOT
ATOM      1  CA  ARG     5      27.950  32.940  29.910  1.00  0.00     0.185 C 
ENDROOT
BRANCH   1   2
ATOM      2  N   ARG     5      28.010  31.690  30.690  1.00  0.00    -0.229 NA
ATOM      3  C   ASN     4      27.600  31.540  31.940  1.00  0.00     0.275 C 
ATOM      4  O   ASN     4      27.350  32.470  32.700  1.00  0.00    -0.268 OA
BRANCH   3   5
ATOM      5  CA  ASN     4      27.790  30.100  32.460  1.00  0.00     0.196 C 
BRANCH   5   6
ATOM      6  N   ASN     4      28.960  30.020  33.360  1.00  0.00    -0.228 NA
ATOM      7  C   LEU     3      30.150  29.570  32.970  1.00  0.00     0.274 C 
ATOM      8  O   LEU     3      30.420  29.180  31.830  1.00  0.00    -0.268 OA
BRANCH   7   9
ATOM      9  CA  LEU     3      31.240  29.620  34.040  1.00  0.00     0.186 C 
BRANCH   9  10
ATOM     10  N   LEU     3      32.060  28.390  33.970  1.00  0.00    -0.229 NA
ATOM     11  C   GLY     2      32.150  27.520  34.980  1.00  0.00     0.277 C 
ATOM     12  O   GLY     2      31.450  27.580  35.980  1.00  0.00    -0.268 OA
BRANCH  11  13
ATOM     13  CA  GLY     2      33.080  26.310  34.750  1.00  0.00     0.218 C 
BRANCH  13  14
ATOM     14  N   GLY     2      34.340  26.530  34.000  1.00  0.00    -0.226 NA
ATOM     15  C   GLU     1      35.250  27.430  34.390  1.00  0.00     0.289 C 
ATOM     16  O   GLU     1      35.160  27.990  35.470  1.00  0.00    -0.268 OA
BRANCH  15  17
ATOM     17  CA  GLU     1      36.480  27.690  33.480  1.00  0.00     0.381 C 
ATOM     18  N   GLU     1      36.170  27.650  32.040  1.00  0.00     0.626 N 
BRANCH  17  19
ATOM     19  CB  GLU     1      37.110  29.040  33.880  1.00  0.00     0.060 C 
BRANCH  19  20
ATOM     20  CG  GLU     1      37.850  29.870  32.820  1.00  0.00     0.100 C 
BRANCH  20  21
ATOM     21  CD  GLU     1      36.930  30.860  32.090  1.00  0.00     0.185 C 
ATOM     22  OE1 GLU     1      35.770  30.500  31.820  1.00  0.00    -0.647 OA
ATOM     23  OE2 GLU     1      37.390  31.970  31.770  1.00  0.00    -0.647 OA
ENDBRANCH  20  21
ENDBRANCH  19  20
ENDBRANCH  17  19
ENDBRANCH  15  17
ENDBRANCH  13  14
ENDBRANCH  11  13
ENDBRANCH   9  10
BRANCH   9  24
ATOM     24  CB  LEU     3      32.110  30.860  33.800  1.00  0.00     0.034 C 
BRANCH  24  25
ATOM     25  CG  LEU     3      33.070  31.180  34.960  1.00  0.00     0.002 C 
ATOM     26  CD1 LEU     3      34.020  32.300  34.540  1.00  0.00     0.000 C 
ATOM     27  CD2 LEU     3      32.300  31.590  36.220  1.00  0.00     0.000 C 
ENDBRANCH  24  25
ENDBRANCH   9  24
ENDBRANCH   7   9
ENDBRANCH   5   6
BRANCH   5  28
ATOM     28  CB  ASN     4      26.530  29.590  33.180  1.00  0.00     0.126 C 
BRANCH  28  29
ATOM     29  CG  ASN     4      25.280  29.540  32.280  1.00  0.00     0.276 C 
ATOM     30  ND2 ASN     4      24.130  29.430  32.890  1.00  0.00    -0.107 N 
ATOM     31  OD1 ASN     4      25.310  29.660  31.070  1.00  0.00    -0.269 OA
ENDBRANCH  28  29
ENDBRANCH   5  28
ENDBRANCH   3   5
ENDBRANCH   1   2
BRANCH   1  32
ATOM     32  CB  ARG     5      29.310  33.240  29.270  1.00  0.00     0.036 C 
BRANCH  32  33
ATOM     33  CG  ARG     5      30.410  33.570  30.280  1.00  0.00     0.029 C 
BRANCH  33  34
ATOM     34  CD  ARG     5      31.720  33.820  29.540  1.00  0.00     0.145 C 
BRANCH  34  35
ATOM     35  NE  ARG     5      32.830  34.140  30.470  1.00  0.00    -0.083 NA
ATOM     36  CZ  ARG     5      33.840  33.310  30.770  1.00  0.00     0.782 C 
ATOM     37  NH2 ARG     5      34.930  33.750  31.420  1.00  0.00     0.063 N 
ATOM     38  NH1 ARG     5      33.860  32.060  30.330  1.00  0.00     0.063 N 
ENDBRANCH  34  35
ENDBRANCH  33  34
ENDBRANCH  32  33
ENDBRANCH   1  32
BRANCH   1  39
ATOM     39  C   ARG     5      26.880  32.810  28.810  1.00  0.00     0.256 C 
ATOM     40  O   ARG     5      26.980  31.920  27.960  1.00  0.00    -0.270 OA
ATOM     41  N   PRO     6      25.820  33.620  28.890  1.00  0.00    -0.312 N 
ATOM     42  CA  PRO     6      24.720  33.650  27.900  1.00  0.00     0.165 C 
ATOM     43  CD  PRO     6      25.490  34.490  30.040  1.00  0.00     0.105 C 
ATOM     44  CB  PRO     6      23.810  34.790  28.360  1.00  0.00     0.034 C 
ATOM     45  CG  PRO     6      24.000  34.790  29.870  1.00  0.00     0.027 C 
BRANCH  42  46
ATOM     46  C   PRO     6      25.250  33.910  26.480  1.00  0.00     0.272 C 
ATOM     47  N   SER     7      24.920  33.080  25.500  1.00  0.00    -0.226 NA
ATOM     48  O   PRO     6      26.060  34.820  26.280  1.00  0.00    -0.269 OA
BRANCH  47  49
ATOM     49  CA  SER     7      24.070  31.870  25.610  1.00  0.00     0.219 C 
BRANCH  49  50
ATOM     50  C   SER     7      24.840  30.590  25.240  1.00  0.00     0.277 C 
ATOM     51  O   SER     7      25.200  30.420  24.080  1.00  0.00    -0.268 OA
ATOM     52  N   GLY     8      25.270  29.860  26.260  1.00  0.00    -0.226 NA
BRANCH  52  53
ATOM     53  CA  GLY     8      25.840  28.500  26.070  1.00  0.00     0.218 C 
BRANCH  53  54
ATOM     54  C   GLY     8      27.250  28.220  26.620  1.00  0.00     0.277 C 
ATOM     55  N   GLY     9      28.150  29.210  26.530  1.00  0.00    -0.226 NA
ATOM     56  O   GLY     8      27.500  27.150  27.150  1.00  0.00    -0.268 OA
BRANCH  55  57
ATOM     57  CA  GLY     9      29.550  29.070  26.980  1.00  0.00     0.218 C 
BRANCH  57  58
ATOM     58  C   GLY     9      29.640  28.950  28.520  1.00  0.00     0.277 C 
ATOM     59  O   GLY     9      28.950  29.680  29.220  1.00  0.00    -0.268 OA
ATOM     60  N   CYS    10      30.560  28.200  29.110  1.00  0.00    -0.228 NA
BRANCH  60  61
ATOM     61  CA  CYS    10      31.640  27.410  28.470  1.00  0.00     0.198 C 
BRANCH  61  62
ATOM     62  CB  CYS    10      32.900  27.330  29.340  1.00  0.00     0.103 C 
ATOM     63  SG  CYS    10      33.750  28.890  29.760  1.00  0.00    -0.080 SA
ENDBRANCH  61  62
BRANCH  61  64
ATOM     64  C   CYS    10      31.270  25.950  28.200  1.00  0.00     0.275 C 
ATOM     65  O   CYS    10      31.090  25.190  29.150  1.00  0.00    -0.268 OA
ATOM     66  N   GLY    11      30.870  25.720  26.960  1.00  0.00    -0.225 NA
BRANCH  66  67
ATOM     67  CA  GLY    11      31.140  24.440  26.290  1.00  0.00     0.226 C 
BRANCH  67  68
ATOM     68  C   GLY    11      32.430  24.680  25.490  1.00  0.00     0.211 C 
ATOM     69  O2  GLY    11      32.270  25.090  24.320  1.00  0.00    -0.646 OA
ATOM     70  O1  GLY    11      33.480  24.810  26.160  1.00  0.00    -0.646 OA
ENDBRANCH  67  68
ENDBRANCH  66  67
ENDBRANCH  61  64
ENDBRANCH  60  61
ENDBRANCH  57  58
ENDBRANCH  55  57
ENDBRANCH  53  54
ENDBRANCH  52  53
ENDBRANCH  49  50
BRANCH  49  71
ATOM     71  CB  SER     7      22.850  31.950  24.690  1.00  0.00     0.216 C 
ATOM     72  OG  SER     7      22.050  33.080  25.040  1.00  0.00    -0.218 OA
ENDBRANCH  49  71
ENDBRANCH  47  49
ENDBRANCH  42  46
ENDBRANCH   1  39
TORSDOF 33
