MODEL 1
REMARK VINA RESULT:      -5.4      0.000      0.000
REMARK  28 active torsions:
REMARK  status: ('A' for Active; 'I' for Inactive)
REMARK       I    between atoms: C_1  and  N_3 
REMARK    1  A    between atoms: C_1  and  C_41 
REMARK    2  A    between atoms: N_3  and  C_5 
REMARK    3  A    between atoms: C_5  and  C_6 
REMARK    4  A    between atoms: C_5  and  C_18 
REMARK       I    between atoms: C_18  and  N_19 
REMARK    5  A    between atoms: C_20  and  C_25 
REMARK       I    between atoms: C_25  and  N_26 
REMARK    6  A    between atoms: N_26  and  C_29 
REMARK    7  A    between atoms: C_29  and  C_30 
REMARK    8  A    between atoms: C_29  and  C_38 
REMARK       I    between atoms: C_30  and  N_31 
REMARK    9  A    between atoms: N_31  and  C_34 
REMARK   10  A    between atoms: C_34  and  C_35 
REMARK   11  A    between atoms: C_38  and  O_39 
REMARK   12  A    between atoms: C_6  and  C_7 
REMARK   13  A    between atoms: C_7  and  C_8 
REMARK   14  A    between atoms: C_8  and  N_9 
REMARK       I    between atoms: N_9  and  C_10 
REMARK       I    between atoms: C_10  and  N_12 
REMARK   15  A    between atoms: C_41  and  C_42 
REMARK   16  A    between atoms: C_41  and  N_48 
REMARK       I    between atoms: N_48  and  C_50 
REMARK   17  A    between atoms: C_50  and  C_52 
REMARK   18  A    between atoms: C_52  and  N_53 
REMARK   19  A    between atoms: C_52  and  C_72 
REMARK       I    between atoms: N_53  and  C_55 
REMARK   20  A    between atoms: C_55  and  C_57 
REMARK   21  A    between atoms: C_57  and  N_58 
REMARK       I    between atoms: N_58  and  C_60 
REMARK   22  A    between atoms: C_60  and  C_62 
REMARK   23  A    between atoms: C_62  and  N_63 
REMARK   24  A    between atoms: C_62  and  C_67 
REMARK   25  A    between atoms: C_67  and  C_68 
REMARK   26  A    between atoms: C_68  and  C_69 
REMARK   27  A    between atoms: C_72  and  C_73 
REMARK   28  A    between atoms: C_42  and  C_43 
REMARK       I    between atoms: C_43  and  N_44 
ROOT
HETATM    1  C           0      -2.773 -18.136   9.544  0.00  0.00     0.241 C 
HETATM    2  O           0      -2.647 -18.860  10.537  0.00  0.00    -0.271 OA
HETATM    3  N           0      -1.832 -18.088   8.572  0.00  0.00    -0.346 N 
HETATM    4  H           0      -1.955 -17.455   7.790  0.00  0.00     0.163 HD
ENDROOT
BRANCH   3   5
HETATM    5  C           0      -0.721 -19.038   8.574  0.00  0.00     0.176 C 
BRANCH   5   6
HETATM    6  C           0      -0.604 -19.778   7.232  0.00  0.00     0.036 C 
BRANCH   6   7
HETATM    7  C           0      -1.938 -19.760   6.477  0.00  0.00     0.023 C 
BRANCH   7   8
HETATM    8  C           0      -2.660 -21.107   6.448  0.00  0.00     0.138 C 
BRANCH   8   9
HETATM    9  N           0      -3.606 -21.120   7.561  0.00  0.00    -0.227 N 
HETATM   10  C           0      -3.430 -21.689   8.750  0.00  0.00     0.665 C 
HETATM   11  N           0      -2.327 -22.395   9.037  0.00  0.00    -0.235 N 
HETATM   12  N           0      -4.398 -21.524   9.670  0.00  0.00    -0.235 N 
HETATM   13  H           0      -2.143 -22.698   9.982  0.00  0.00     0.174 HD
HETATM   14  H           0      -1.567 -22.455   8.379  0.00  0.00     0.174 HD
HETATM   15  H           0      -4.434 -22.120  10.483  0.00  0.00     0.174 HD
HETATM   16  H           0      -5.260 -21.090   9.334  0.00  0.00     0.174 HD
HETATM   17  H           0      -4.529 -20.669   7.446  0.00  0.00     0.177 HD
ENDBRANCH   8   9
ENDBRANCH   7   8
ENDBRANCH   6   7
ENDBRANCH   5   6
BRANCH   5  18
HETATM   18  C           0       0.628 -18.477   9.076  0.00  0.00     0.243 C 
HETATM   19  N           0       1.723 -19.281   9.154  0.00  0.00    -0.337 N 
HETATM   20  C           0       3.025 -18.694   9.516  0.00  0.00     0.179 C 
HETATM   21  C           0       1.743 -20.746   9.358  0.00  0.00     0.127 C 
HETATM   22  C           0       3.801 -19.847  10.211  0.00  0.00     0.037 C 
HETATM   23  C           0       2.727 -20.901  10.522  0.00  0.00     0.022 C 
HETATM   24  O           0       0.680 -17.271   9.330  0.00  0.00    -0.271 OA
BRANCH  20  25
HETATM   25  C           0       3.835 -18.136   8.334  0.00  0.00     0.241 C 
HETATM   26  N           0       3.300 -17.109   7.625  0.00  0.00    -0.344 N 
HETATM   27  H           0       2.395 -16.730   7.891  0.00  0.00     0.163 HD
HETATM   28  O           0       4.925 -18.647   8.065  0.00  0.00    -0.271 OA
BRANCH  26  29
HETATM   29  C           0       3.898 -16.638   6.384  0.00  0.00     0.200 C 
BRANCH  29  30
HETATM   30  C           0       5.340 -16.104   6.495  0.00  0.00     0.242 C 
HETATM   31  N           0       5.647 -15.334   7.548  0.00  0.00    -0.354 N 
HETATM   32  H           0       4.988 -15.131   8.296  0.00  0.00     0.162 HD
HETATM   33  O           0       6.154 -16.402   5.607  0.00  0.00    -0.271 OA
BRANCH  31  34
HETATM   34  C           0       6.977 -14.810   7.795  0.00  0.00     0.203 C 
BRANCH  34  35
HETATM   35  C           0       7.638 -15.551   8.992  0.00  0.00     0.307 C 
HETATM   36  O           0       8.888 -15.429   9.103  0.00  0.00    -0.186 OA
HETATM   37  O           0       6.847 -16.193   9.724  0.00  0.00    -0.186 OA
ENDBRANCH  34  35
ENDBRANCH  31  34
ENDBRANCH  29  30
BRANCH  29  38
HETATM   38  C           0       3.008 -15.572   5.710  0.00  0.00     0.199 C 
BRANCH  38  39
HETATM   39  O           0       3.121 -14.298   6.318  0.00  0.00    -0.398 OA
HETATM   40  H           0       2.558 -13.658   5.850  0.00  0.00     0.209 HD
ENDBRANCH  38  39
ENDBRANCH  29  38
ENDBRANCH  26  29
ENDBRANCH  20  25
ENDBRANCH   5  18
ENDBRANCH   3   5
BRANCH   1  41
HETATM   41  C           0      -4.041 -17.281   9.334  0.00  0.00     0.185 C 
BRANCH  41  42
HETATM   42  C           0      -4.251 -16.252  10.462  0.00  0.00     0.137 C 
BRANCH  42  43
HETATM   43  C           0      -5.319 -15.196  10.176  0.00  0.00     0.217 C 
HETATM   44  N           0      -4.839 -14.062   9.622  0.00  0.00    -0.370 N 
HETATM   45  H           0      -5.484 -13.292   9.509  0.00  0.00     0.159 HD
HETATM   46  H           0      -3.835 -13.898   9.474  0.00  0.00     0.159 HD
HETATM   47  O           0      -6.504 -15.371  10.469  0.00  0.00    -0.274 OA
ENDBRANCH  42  43
ENDBRANCH  41  42
BRANCH  41  48
HETATM   48  N           0      -5.248 -18.095   9.261  0.00  0.00    -0.346 N 
HETATM   49  H           0      -5.683 -18.384  10.127  0.00  0.00     0.163 HD
HETATM   50  C           0      -5.764 -18.566   8.107  0.00  0.00     0.241 C 
HETATM   51  O           0      -5.245 -18.370   7.001  0.00  0.00    -0.271 OA
BRANCH  50  52
HETATM   52  C           0      -7.081 -19.357   8.215  0.00  0.00     0.177 C 
BRANCH  52  53
HETATM   53  N           0      -8.251 -18.534   7.924  0.00  0.00    -0.346 N 
HETATM   54  H           0      -8.518 -18.389   6.959  0.00  0.00     0.163 HD
HETATM   55  C           0      -9.060 -18.062   8.910  0.00  0.00     0.236 C 
HETATM   56  O           0      -8.869 -18.293  10.102  0.00  0.00    -0.272 OA
BRANCH  55  57
HETATM   57  C           0     -10.270 -17.229   8.464  0.00  0.00     0.225 C 
BRANCH  57  58
HETATM   58  N           0      -9.990 -16.303   7.368  0.00  0.00    -0.351 N 
HETATM   59  H           0      -9.086 -15.852   7.365  0.00  0.00     0.163 HD
HETATM   60  C           0     -10.791 -16.303   6.277  0.00  0.00     0.248 C 
HETATM   61  O           0     -11.807 -17.003   6.222  0.00  0.00    -0.271 OA
BRANCH  60  62
HETATM   62  C           0     -10.473 -15.400   5.079  0.00  0.00     0.275 C 
BRANCH  62  63
HETATM   63  N           0     -11.371 -14.177   5.000  0.00  0.00    -0.066 N 
HETATM   64  H           0     -10.958 -13.421   4.443  0.00  0.00     0.275 HD
HETATM   65  H           0     -12.305 -14.372   4.627  0.00  0.00     0.275 HD
HETATM   66  H           0     -11.516 -13.800   5.943  0.00  0.00     0.275 HD
ENDBRANCH  62  63
BRANCH  62  67
HETATM   67  C           0      -9.007 -14.949   4.982  0.00  0.00     0.053 C 
BRANCH  67  68
HETATM   68  C           0      -8.603 -13.884   6.009  0.00  0.00     0.115 C 
BRANCH  68  69
HETATM   69  C           0      -7.464 -14.251   6.980  0.00  0.00     0.172 C 
HETATM   70  O           0      -6.816 -13.326   7.535  0.00  0.00    -0.648 OA
HETATM   71  O           0      -7.246 -15.496   7.136  0.00  0.00    -0.648 OA
ENDBRANCH  68  69
ENDBRANCH  67  68
ENDBRANCH  62  67
ENDBRANCH  60  62
ENDBRANCH  57  58
ENDBRANCH  55  57
ENDBRANCH  52  53
BRANCH  52  72
HETATM   72  C           0      -7.087 -20.588   7.279  0.00  0.00     0.038 C 
BRANCH  72  73
HETATM   73  C           0      -8.212 -21.619   7.488  0.00  0.00    -0.020 C 
HETATM   74  C           0      -9.271 -21.568   6.377  0.00  0.00     0.009 C 
HETATM   75  C           0      -7.597 -23.024   7.593  0.00  0.00     0.009 C 
ENDBRANCH  72  73
ENDBRANCH  52  72
ENDBRANCH  50  52
ENDBRANCH  41  48
ENDBRANCH   1  41
TORSDOF 28
ENDMDL
MODEL 2
REMARK VINA RESULT:      -5.2      3.078      6.960
REMARK  28 active torsions:
REMARK  status: ('A' for Active; 'I' for Inactive)
REMARK       I    between atoms: C_1  and  N_3 
REMARK    1  A    between atoms: C_1  and  C_41 
REMARK    2  A    between atoms: N_3  and  C_5 
REMARK    3  A    between atoms: C_5  and  C_6 
REMARK    4  A    between atoms: C_5  and  C_18 
REMARK       I    between atoms: C_18  and  N_19 
REMARK    5  A    between atoms: C_20  and  C_25 
REMARK       I    between atoms: C_25  and  N_26 
REMARK    6  A    between atoms: N_26  and  C_29 
REMARK    7  A    between atoms: C_29  and  C_30 
REMARK    8  A    between atoms: C_29  and  C_38 
REMARK       I    between atoms: C_30  and  N_31 
REMARK    9  A    between atoms: N_31  and  C_34 
REMARK   10  A    between atoms: C_34  and  C_35 
REMARK   11  A    between atoms: C_38  and  O_39 
REMARK   12  A    between atoms: C_6  and  C_7 
REMARK   13  A    between atoms: C_7  and  C_8 
REMARK   14  A    between atoms: C_8  and  N_9 
REMARK       I    between atoms: N_9  and  C_10 
REMARK       I    between atoms: C_10  and  N_12 
REMARK   15  A    between atoms: C_41  and  C_42 
REMARK   16  A    between atoms: C_41  and  N_48 
REMARK       I    between atoms: N_48  and  C_50 
REMARK   17  A    between atoms: C_50  and  C_52 
REMARK   18  A    between atoms: C_52  and  N_53 
REMARK   19  A    between atoms: C_52  and  C_72 
REMARK       I    between atoms: N_53  and  C_55 
REMARK   20  A    between atoms: C_55  and  C_57 
REMARK   21  A    between atoms: C_57  and  N_58 
REMARK       I    between atoms: N_58  and  C_60 
REMARK   22  A    between atoms: C_60  and  C_62 
REMARK   23  A    between atoms: C_62  and  N_63 
REMARK   24  A    between atoms: C_62  and  C_67 
REMARK   25  A    between atoms: C_67  and  C_68 
REMARK   26  A    between atoms: C_68  and  C_69 
REMARK   27  A    between atoms: C_72  and  C_73 
REMARK   28  A    between atoms: C_42  and  C_43 
REMARK       I    between atoms: C_43  and  N_44 
ROOT
HETATM    1  C           0      -2.130 -19.142   9.107  0.00  0.00     0.241 C 
HETATM    2  O           0      -2.285 -18.473   8.079  0.00  0.00    -0.271 OA
HETATM    3  N           0      -0.996 -19.065   9.843  0.00  0.00    -0.346 N 
HETATM    4  H           0      -0.893 -19.656  10.659  0.00  0.00     0.163 HD
ENDROOT
BRANCH   3   5
HETATM    5  C           0       0.006 -18.043   9.549  0.00  0.00     0.176 C 
BRANCH   5   6
HETATM    6  C           0      -0.277 -16.736  10.308  0.00  0.00     0.036 C 
BRANCH   6   7
HETATM    7  C           0      -0.514 -15.576   9.334  0.00  0.00     0.023 C 
BRANCH   7   8
HETATM    8  C           0      -1.850 -14.858   9.529  0.00  0.00     0.138 C 
BRANCH   8   9
HETATM    9  N           0      -2.851 -15.873   9.847  0.00  0.00    -0.227 N 
HETATM   10  C           0      -4.172 -15.737   9.783  0.00  0.00     0.665 C 
HETATM   11  N           0      -4.746 -14.570   9.459  0.00  0.00    -0.235 N 
HETATM   12  N           0      -4.924 -16.821  10.046  0.00  0.00    -0.235 N 
HETATM   13  H           0      -5.736 -14.518   9.275  0.00  0.00     0.174 HD
HETATM   14  H           0      -4.186 -13.778   9.185  0.00  0.00     0.174 HD
HETATM   15  H           0      -5.906 -16.721  10.250  0.00  0.00     0.174 HD
HETATM   16  H           0      -4.420 -17.632  10.414  0.00  0.00     0.174 HD
HETATM   17  H           0      -2.541 -16.802  10.179  0.00  0.00     0.177 HD
ENDBRANCH   8   9
ENDBRANCH   7   8
ENDBRANCH   6   7
ENDBRANCH   5   6
BRANCH   5  18
HETATM   18  C           0       1.476 -18.504   9.664  0.00  0.00     0.243 C 
HETATM   19  N           0       1.988 -19.404   8.782  0.00  0.00    -0.337 N 
HETATM   20  C           0       3.423 -19.732   8.838  0.00  0.00     0.179 C 
HETATM   21  C           0       1.248 -20.447   8.040  0.00  0.00     0.127 C 
HETATM   22  C           0       3.518 -21.188   8.303  0.00  0.00     0.037 C 
HETATM   23  C           0       2.071 -21.706   8.336  0.00  0.00     0.022 C 
HETATM   24  O           0       2.168 -17.973  10.537  0.00  0.00    -0.271 OA
BRANCH  20  25
HETATM   25  C           0       4.334 -18.799   8.023  0.00  0.00     0.241 C 
HETATM   26  N           0       3.831 -17.599   7.637  0.00  0.00    -0.344 N 
HETATM   27  H           0       2.883 -17.341   7.899  0.00  0.00     0.163 HD
HETATM   28  O           0       5.472 -19.178   7.738  0.00  0.00    -0.271 OA
BRANCH  26  29
HETATM   29  C           0       4.542 -16.729   6.711  0.00  0.00     0.200 C 
BRANCH  29  30
HETATM   30  C           0       5.638 -15.841   7.332  0.00  0.00     0.242 C 
HETATM   31  N           0       6.882 -16.334   7.404  0.00  0.00    -0.354 N 
HETATM   32  H           0       7.140 -17.241   7.023  0.00  0.00     0.162 HD
HETATM   33  O           0       5.327 -14.713   7.744  0.00  0.00    -0.271 OA
BRANCH  31  34
HETATM   34  C           0       8.012 -15.584   7.920  0.00  0.00     0.203 C 
BRANCH  34  35
HETATM   35  C           0       9.287 -15.878   7.080  0.00  0.00     0.307 C 
HETATM   36  O           0       9.258 -16.916   6.366  0.00  0.00    -0.186 OA
HETATM   37  O           0      10.213 -15.040   7.205  0.00  0.00    -0.186 OA
ENDBRANCH  34  35
ENDBRANCH  31  34
ENDBRANCH  29  30
BRANCH  29  38
HETATM   38  C           0       3.559 -15.846   5.913  0.00  0.00     0.199 C 
BRANCH  38  39
HETATM   39  O           0       2.700 -15.090   6.747  0.00  0.00    -0.398 OA
HETATM   40  H           0       3.108 -14.975   7.622  0.00  0.00     0.209 HD
ENDBRANCH  38  39
ENDBRANCH  29  38
ENDBRANCH  26  29
ENDBRANCH  20  25
ENDBRANCH   5  18
ENDBRANCH   3   5
BRANCH   1  41
HETATM   41  C           0      -3.246 -20.068   9.633  0.00  0.00     0.185 C 
BRANCH  41  42
HETATM   42  C           0      -2.692 -21.278  10.409  0.00  0.00     0.137 C 
BRANCH  42  43
HETATM   43  C           0      -2.602 -22.572   9.600  0.00  0.00     0.217 C 
HETATM   44  N           0      -1.352 -22.880   9.191  0.00  0.00    -0.370 N 
HETATM   45  H           0      -1.250 -23.668   8.566  0.00  0.00     0.159 HD
HETATM   46  H           0      -0.548 -22.261   9.349  0.00  0.00     0.159 HD
HETATM   47  O           0      -3.600 -23.242   9.325  0.00  0.00    -0.274 OA
ENDBRANCH  42  43
ENDBRANCH  41  42
BRANCH  41  48
HETATM   48  N           0      -4.082 -20.588   8.558  0.00  0.00    -0.346 N 
HETATM   49  H           0      -3.672 -21.249   7.911  0.00  0.00     0.163 HD
HETATM   50  C           0      -5.341 -20.169   8.318  0.00  0.00     0.241 C 
HETATM   51  O           0      -5.898 -19.281   8.976  0.00  0.00    -0.271 OA
BRANCH  50  52
HETATM   52  C           0      -6.097 -20.877   7.177  0.00  0.00     0.177 C 
BRANCH  52  53
HETATM   53  N           0      -5.737 -22.287   7.062  0.00  0.00    -0.346 N 
HETATM   54  H           0      -6.151 -22.949   7.706  0.00  0.00     0.163 HD
HETATM   55  C           0      -4.967 -22.752   6.043  0.00  0.00     0.236 C 
HETATM   56  O           0      -4.523 -22.028   5.155  0.00  0.00    -0.272 OA
BRANCH  55  57
HETATM   57  C           0      -4.686 -24.261   6.029  0.00  0.00     0.225 C 
BRANCH  57  58
HETATM   58  N           0      -3.426 -24.642   6.665  0.00  0.00    -0.351 N 
HETATM   59  H           0      -3.456 -24.869   7.649  0.00  0.00     0.163 HD
HETATM   60  C           0      -2.360 -24.960   5.893  0.00  0.00     0.248 C 
HETATM   61  O           0      -2.399 -24.848   4.663  0.00  0.00    -0.271 OA
BRANCH  60  62
HETATM   62  C           0      -1.053 -25.442   6.531  0.00  0.00     0.275 C 
BRANCH  62  63
HETATM   63  N           0      -0.694 -26.869   6.149  0.00  0.00    -0.066 N 
HETATM   64  H           0       0.160 -26.922   5.584  0.00  0.00     0.275 HD
HETATM   65  H           0      -0.583 -27.497   6.952  0.00  0.00     0.275 HD
HETATM   66  H           0      -1.448 -27.269   5.580  0.00  0.00     0.275 HD
ENDBRANCH  62  63
BRANCH  62  67
HETATM   67  C           0       0.163 -24.538   6.272  0.00  0.00     0.053 C 
BRANCH  67  68
HETATM   68  C           0       1.490 -25.290   6.113  0.00  0.00     0.115 C 
BRANCH  68  69
HETATM   69  C           0       2.301 -25.548   7.398  0.00  0.00     0.172 C 
HETATM   70  O           0       1.850 -26.358   8.249  0.00  0.00    -0.648 OA
HETATM   71  O           0       3.384 -24.888   7.514  0.00  0.00    -0.648 OA
ENDBRANCH  68  69
ENDBRANCH  67  68
ENDBRANCH  62  67
ENDBRANCH  60  62
ENDBRANCH  57  58
ENDBRANCH  55  57
ENDBRANCH  52  53
BRANCH  52  72
HETATM   72  C           0      -7.629 -20.759   7.347  0.00  0.00     0.038 C 
BRANCH  72  73
HETATM   73  C           0      -8.496 -21.781   6.587  0.00  0.00    -0.020 C 
HETATM   74  C           0      -9.380 -22.616   7.526  0.00  0.00     0.009 C 
HETATM   75  C           0      -9.350 -21.042   5.545  0.00  0.00     0.009 C 
ENDBRANCH  72  73
ENDBRANCH  52  72
ENDBRANCH  50  52
ENDBRANCH  41  48
ENDBRANCH   1  41
TORSDOF 28
ENDMDL
MODEL 3
REMARK VINA RESULT:      -5.2      5.186      9.448
REMARK  28 active torsions:
REMARK  status: ('A' for Active; 'I' for Inactive)
REMARK       I    between atoms: C_1  and  N_3 
REMARK    1  A    between atoms: C_1  and  C_41 
REMARK    2  A    between atoms: N_3  and  C_5 
REMARK    3  A    between atoms: C_5  and  C_6 
REMARK    4  A    between atoms: C_5  and  C_18 
REMARK       I    between atoms: C_18  and  N_19 
REMARK    5  A    between atoms: C_20  and  C_25 
REMARK       I    between atoms: C_25  and  N_26 
REMARK    6  A    between atoms: N_26  and  C_29 
REMARK    7  A    between atoms: C_29  and  C_30 
REMARK    8  A    between atoms: C_29  and  C_38 
REMARK       I    between atoms: C_30  and  N_31 
REMARK    9  A    between atoms: N_31  and  C_34 
REMARK   10  A    between atoms: C_34  and  C_35 
REMARK   11  A    between atoms: C_38  and  O_39 
REMARK   12  A    between atoms: C_6  and  C_7 
REMARK   13  A    between atoms: C_7  and  C_8 
REMARK   14  A    between atoms: C_8  and  N_9 
REMARK       I    between atoms: N_9  and  C_10 
REMARK       I    between atoms: C_10  and  N_12 
REMARK   15  A    between atoms: C_41  and  C_42 
REMARK   16  A    between atoms: C_41  and  N_48 
REMARK       I    between atoms: N_48  and  C_50 
REMARK   17  A    between atoms: C_50  and  C_52 
REMARK   18  A    between atoms: C_52  and  N_53 
REMARK   19  A    between atoms: C_52  and  C_72 
REMARK       I    between atoms: N_53  and  C_55 
REMARK   20  A    between atoms: C_55  and  C_57 
REMARK   21  A    between atoms: C_57  and  N_58 
REMARK       I    between atoms: N_58  and  C_60 
REMARK   22  A    between atoms: C_60  and  C_62 
REMARK   23  A    between atoms: C_62  and  N_63 
REMARK   24  A    between atoms: C_62  and  C_67 
REMARK   25  A    between atoms: C_67  and  C_68 
REMARK   26  A    between atoms: C_68  and  C_69 
REMARK   27  A    between atoms: C_72  and  C_73 
REMARK   28  A    between atoms: C_42  and  C_43 
REMARK       I    between atoms: C_43  and  N_44 
ROOT
HETATM    1  C           0       4.606 -18.686   8.777  0.00  0.00     0.241 C 
HETATM    2  O           0       4.389 -18.327   7.614  0.00  0.00    -0.271 OA
HETATM    3  N           0       5.791 -18.450   9.387  0.00  0.00    -0.346 N 
HETATM    4  H           0       5.942 -18.792  10.329  0.00  0.00     0.163 HD
ENDROOT
BRANCH   3   5
HETATM    5  C           0       6.788 -17.591   8.753  0.00  0.00     0.176 C 
BRANCH   5   6
HETATM    6  C           0       7.074 -16.336   9.594  0.00  0.00     0.036 C 
BRANCH   6   7
HETATM    7  C           0       6.794 -15.061   8.791  0.00  0.00     0.023 C 
BRANCH   7   8
HETATM    8  C           0       6.342 -15.313   7.352  0.00  0.00     0.138 C 
BRANCH   8   9
HETATM    9  N           0       5.036 -14.682   7.186  0.00  0.00    -0.227 N 
HETATM   10  C           0       4.040 -15.103   6.412  0.00  0.00     0.665 C 
HETATM   11  N           0       4.168 -16.178   5.621  0.00  0.00    -0.235 N 
HETATM   12  N           0       2.882 -14.418   6.456  0.00  0.00    -0.235 N 
HETATM   13  H           0       3.365 -16.568   5.151  0.00  0.00     0.174 HD
HETATM   14  H           0       5.004 -16.738   5.644  0.00  0.00     0.174 HD
HETATM   15  H           0       2.193 -14.538   5.730  0.00  0.00     0.174 HD
HETATM   16  H           0       2.907 -13.539   6.979  0.00  0.00     0.174 HD
HETATM   17  H           0       4.831 -13.802   7.690  0.00  0.00     0.177 HD
ENDBRANCH   8   9
ENDBRANCH   7   8
ENDBRANCH   6   7
ENDBRANCH   5   6
BRANCH   5  18
HETATM   18  C           0       8.073 -18.306   8.278  0.00  0.00     0.243 C 
HETATM   19  N           0       8.385 -18.357   6.955  0.00  0.00    -0.337 N 
HETATM   20  C           0       9.675 -18.935   6.540  0.00  0.00     0.179 C 
HETATM   21  C           0       7.446 -18.319   5.813  0.00  0.00     0.127 C 
HETATM   22  C           0       9.416 -19.504   5.117  0.00  0.00     0.037 C 
HETATM   23  C           0       7.885 -19.532   4.987  0.00  0.00     0.022 C 
HETATM   24  O           0       8.822 -18.759   9.147  0.00  0.00    -0.271 OA
BRANCH  20  25
HETATM   25  C           0      10.852 -17.945   6.518  0.00  0.00     0.241 C 
HETATM   26  N           0      10.826 -16.949   5.596  0.00  0.00    -0.344 N 
HETATM   27  H           0      10.039 -16.873   4.957  0.00  0.00     0.163 HD
HETATM   28  O           0      11.775 -18.100   7.321  0.00  0.00    -0.271 OA
BRANCH  26  29
HETATM   29  C           0      11.972 -16.080   5.372  0.00  0.00     0.200 C 
BRANCH  29  30
HETATM   30  C           0      11.983 -14.764   6.174  0.00  0.00     0.242 C 
HETATM   31  N           0      13.112 -14.042   6.184  0.00  0.00    -0.354 N 
HETATM   32  H           0      13.937 -14.298   5.648  0.00  0.00     0.162 HD
HETATM   33  O           0      10.954 -14.428   6.781  0.00  0.00    -0.271 OA
BRANCH  31  34
HETATM   34  C           0      13.238 -12.763   6.858  0.00  0.00     0.203 C 
BRANCH  34  35
HETATM   35  C           0      13.168 -11.598   5.830  0.00  0.00     0.307 C 
HETATM   36  O           0      13.135 -11.929   4.614  0.00  0.00    -0.186 OA
HETATM   37  O           0      13.151 -10.447   6.329  0.00  0.00    -0.186 OA
ENDBRANCH  34  35
ENDBRANCH  31  34
ENDBRANCH  29  30
BRANCH  29  38
HETATM   38  C           0      12.144 -15.765   3.870  0.00  0.00     0.199 C 
BRANCH  38  39
HETATM   39  O           0      11.844 -14.419   3.554  0.00  0.00    -0.398 OA
HETATM   40  H           0      11.863 -13.878   4.362  0.00  0.00     0.209 HD
ENDBRANCH  38  39
ENDBRANCH  29  38
ENDBRANCH  26  29
ENDBRANCH  20  25
ENDBRANCH   5  18
ENDBRANCH   3   5
BRANCH   1  41
HETATM   41  C           0       3.513 -19.384   9.614  0.00  0.00     0.185 C 
BRANCH  41  42
HETATM   42  C           0       4.007 -20.695  10.254  0.00  0.00     0.137 C 
BRANCH  42  43
HETATM   43  C           0       4.559 -21.724   9.266  0.00  0.00     0.217 C 
HETATM   44  N           0       5.800 -22.164   9.565  0.00  0.00    -0.370 N 
HETATM   45  H           0       6.253 -22.765   8.890  0.00  0.00     0.159 HD
HETATM   46  H           0       6.350 -21.786  10.346  0.00  0.00     0.159 HD
HETATM   47  O           0       3.924 -22.078   8.270  0.00  0.00    -0.274 OA
ENDBRANCH  42  43
ENDBRANCH  41  42
BRANCH  41  48
HETATM   48  N           0       2.334 -19.707   8.819  0.00  0.00    -0.346 N 
HETATM   49  H           0       2.468 -20.185   7.937  0.00  0.00     0.163 HD
HETATM   50  C           0       1.083 -19.323   9.145  0.00  0.00     0.241 C 
HETATM   51  O           0       0.822 -18.636  10.140  0.00  0.00    -0.271 OA
BRANCH  50  52
HETATM   52  C           0      -0.049 -19.810   8.220  0.00  0.00     0.177 C 
BRANCH  52  53
HETATM   53  N           0      -0.299 -21.242   8.353  0.00  0.00    -0.346 N 
HETATM   54  H           0      -1.002 -21.555   9.010  0.00  0.00     0.163 HD
HETATM   55  C           0       0.292 -22.153   7.534  0.00  0.00     0.236 C 
HETATM   56  O           0       1.068 -21.842   6.634  0.00  0.00    -0.272 OA
BRANCH  55  57
HETATM   57  C           0      -0.078 -23.624   7.766  0.00  0.00     0.225 C 
BRANCH  57  58
HETATM   58  N           0      -0.765 -24.256   6.641  0.00  0.00    -0.351 N 
HETATM   59  H           0      -0.915 -23.691   5.817  0.00  0.00     0.163 HD
HETATM   60  C           0      -0.905 -25.602   6.617  0.00  0.00     0.248 C 
HETATM   61  O           0      -0.547 -26.305   7.569  0.00  0.00    -0.271 OA
BRANCH  60  62
HETATM   62  C           0      -1.548 -26.297   5.411  0.00  0.00     0.275 C 
BRANCH  62  63
HETATM   63  N           0      -1.527 -27.813   5.517  0.00  0.00    -0.066 N 
HETATM   64  H           0      -0.601 -28.209   5.323  0.00  0.00     0.275 HD
HETATM   65  H           0      -1.841 -28.169   6.426  0.00  0.00     0.275 HD
HETATM   66  H           0      -2.167 -28.212   4.822  0.00  0.00     0.275 HD
ENDBRANCH  62  63
BRANCH  62  67
HETATM   67  C           0      -2.980 -25.840   5.091  0.00  0.00     0.053 C 
BRANCH  67  68
HETATM   68  C           0      -3.079 -24.820   3.951  0.00  0.00     0.115 C 
BRANCH  68  69
HETATM   69  C           0      -3.438 -23.372   4.343  0.00  0.00     0.172 C 
HETATM   70  O           0      -3.203 -22.985   5.517  0.00  0.00    -0.648 OA
HETATM   71  O           0      -3.976 -22.666   3.430  0.00  0.00    -0.648 OA
ENDBRANCH  68  69
ENDBRANCH  67  68
ENDBRANCH  62  67
ENDBRANCH  60  62
ENDBRANCH  57  58
ENDBRANCH  55  57
ENDBRANCH  52  53
BRANCH  52  72
HETATM   72  C           0      -1.366 -19.042   8.477  0.00  0.00     0.038 C 
BRANCH  72  73
HETATM   73  C           0      -2.648 -19.625   7.851  0.00  0.00    -0.020 C 
HETATM   74  C           0      -3.916 -18.893   8.314  0.00  0.00     0.009 C 
HETATM   75  C           0      -2.523 -19.590   6.320  0.00  0.00     0.009 C 
ENDBRANCH  72  73
ENDBRANCH  52  72
ENDBRANCH  50  52
ENDBRANCH  41  48
ENDBRANCH   1  41
TORSDOF 28
ENDMDL
MODEL 4
REMARK VINA RESULT:      -5.1     16.826     20.356
REMARK  28 active torsions:
REMARK  status: ('A' for Active; 'I' for Inactive)
REMARK       I    between atoms: C_1  and  N_3 
REMARK    1  A    between atoms: C_1  and  C_41 
REMARK    2  A    between atoms: N_3  and  C_5 
REMARK    3  A    between atoms: C_5  and  C_6 
REMARK    4  A    between atoms: C_5  and  C_18 
REMARK       I    between atoms: C_18  and  N_19 
REMARK    5  A    between atoms: C_20  and  C_25 
REMARK       I    between atoms: C_25  and  N_26 
REMARK    6  A    between atoms: N_26  and  C_29 
REMARK    7  A    between atoms: C_29  and  C_30 
REMARK    8  A    between atoms: C_29  and  C_38 
REMARK       I    between atoms: C_30  and  N_31 
REMARK    9  A    between atoms: N_31  and  C_34 
REMARK   10  A    between atoms: C_34  and  C_35 
REMARK   11  A    between atoms: C_38  and  O_39 
REMARK   12  A    between atoms: C_6  and  C_7 
REMARK   13  A    between atoms: C_7  and  C_8 
REMARK   14  A    between atoms: C_8  and  N_9 
REMARK       I    between atoms: N_9  and  C_10 
REMARK       I    between atoms: C_10  and  N_12 
REMARK   15  A    between atoms: C_41  and  C_42 
REMARK   16  A    between atoms: C_41  and  N_48 
REMARK       I    between atoms: N_48  and  C_50 
REMARK   17  A    between atoms: C_50  and  C_52 
REMARK   18  A    between atoms: C_52  and  N_53 
REMARK   19  A    between atoms: C_52  and  C_72 
REMARK       I    between atoms: N_53  and  C_55 
REMARK   20  A    between atoms: C_55  and  C_57 
REMARK   21  A    between atoms: C_57  and  N_58 
REMARK       I    between atoms: N_58  and  C_60 
REMARK   22  A    between atoms: C_60  and  C_62 
REMARK   23  A    between atoms: C_62  and  N_63 
REMARK   24  A    between atoms: C_62  and  C_67 
REMARK   25  A    between atoms: C_67  and  C_68 
REMARK   26  A    between atoms: C_68  and  C_69 
REMARK   27  A    between atoms: C_72  and  C_73 
REMARK   28  A    between atoms: C_42  and  C_43 
REMARK       I    between atoms: C_43  and  N_44 
ROOT
HETATM    1  C           0      -5.638   1.442   8.060  0.00  0.00     0.241 C 
HETATM    2  O           0      -5.809   1.586   9.276  0.00  0.00    -0.271 OA
HETATM    3  N           0      -4.505   1.856   7.446  0.00  0.00    -0.346 N 
HETATM    4  H           0      -4.417   1.753   6.442  0.00  0.00     0.163 HD
ENDROOT
BRANCH   3   5
HETATM    5  C           0      -3.364   2.316   8.235  0.00  0.00     0.176 C 
BRANCH   5   6
HETATM    6  C           0      -2.263   1.245   8.318  0.00  0.00     0.036 C 
BRANCH   6   7
HETATM    7  C           0      -1.929   0.912   9.776  0.00  0.00     0.023 C 
BRANCH   7   8
HETATM    8  C           0      -0.737   1.687  10.338  0.00  0.00     0.138 C 
BRANCH   8   9
HETATM    9  N           0       0.422   0.799  10.294  0.00  0.00    -0.227 N 
HETATM   10  C           0       1.608   1.063   9.753  0.00  0.00     0.665 C 
HETATM   11  N           0       1.848   2.214   9.108  0.00  0.00    -0.235 N 
HETATM   12  N           0       2.574   0.135   9.884  0.00  0.00    -0.235 N 
HETATM   13  H           0       2.786   2.460   8.830  0.00  0.00     0.174 HD
HETATM   14  H           0       1.153   2.942   9.077  0.00  0.00     0.174 HD
HETATM   15  H           0       3.394   0.171   9.299  0.00  0.00     0.174 HD
HETATM   16  H           0       2.276  -0.764  10.269  0.00  0.00     0.174 HD
HETATM   17  H           0       0.348  -0.150  10.697  0.00  0.00     0.177 HD
ENDBRANCH   8   9
ENDBRANCH   7   8
ENDBRANCH   6   7
ENDBRANCH   5   6
BRANCH   5  18
HETATM   18  C           0      -2.822   3.714   7.864  0.00  0.00     0.243 C 
HETATM   19  N           0      -2.507   4.612   8.837  0.00  0.00    -0.337 N 
HETATM   20  C           0      -1.877   5.889   8.461  0.00  0.00     0.179 C 
HETATM   21  C           0      -3.092   4.703  10.191  0.00  0.00     0.127 C 
HETATM   22  C           0      -2.321   6.890   9.564  0.00  0.00     0.037 C 
HETATM   23  C           0      -3.482   6.183  10.281  0.00  0.00     0.022 C 
HETATM   24  O           0      -2.626   3.946   6.668  0.00  0.00    -0.271 OA
BRANCH  20  25
HETATM   25  C           0      -0.342   5.849   8.358  0.00  0.00     0.241 C 
HETATM   26  N           0       0.292   6.959   7.901  0.00  0.00    -0.344 N 
HETATM   27  H           0      -0.248   7.783   7.651  0.00  0.00     0.163 HD
HETATM   28  O           0       0.249   4.815   8.676  0.00  0.00    -0.271 OA
BRANCH  26  29
HETATM   29  C           0       1.715   6.958   7.592  0.00  0.00     0.200 C 
BRANCH  29  30
HETATM   30  C           0       2.489   8.230   7.991  0.00  0.00     0.242 C 
HETATM   31  N           0       1.809   9.383   8.065  0.00  0.00    -0.354 N 
HETATM   32  H           0       0.804   9.443   7.920  0.00  0.00     0.162 HD
HETATM   33  O           0       3.704   8.139   8.222  0.00  0.00    -0.271 OA
BRANCH  31  34
HETATM   34  C           0       2.407  10.640   8.475  0.00  0.00     0.203 C 
BRANCH  34  35
HETATM   35  C           0       2.970  11.401   7.241  0.00  0.00     0.307 C 
HETATM   36  O           0       2.119  11.912   6.465  0.00  0.00    -0.186 OA
HETATM   37  O           0       4.222  11.423   7.154  0.00  0.00    -0.186 OA
ENDBRANCH  34  35
ENDBRANCH  31  34
ENDBRANCH  29  30
BRANCH  29  38
HETATM   38  C           0       1.958   6.659   6.098  0.00  0.00     0.199 C 
BRANCH  38  39
HETATM   39  O           0       2.314   7.812   5.358  0.00  0.00    -0.398 OA
HETATM   40  H           0       3.094   7.623   4.809  0.00  0.00     0.209 HD
ENDBRANCH  38  39
ENDBRANCH  29  38
ENDBRANCH  26  29
ENDBRANCH  20  25
ENDBRANCH   5  18
ENDBRANCH   3   5
BRANCH   1  41
HETATM   41  C           0      -6.693   0.735   7.183  0.00  0.00     0.185 C 
BRANCH  41  42
HETATM   42  C           0      -7.583   1.730   6.414  0.00  0.00     0.137 C 
BRANCH  42  43
HETATM   43  C           0      -7.453   1.665   4.893  0.00  0.00     0.217 C 
HETATM   44  N           0      -8.451   0.989   4.283  0.00  0.00    -0.370 N 
HETATM   45  H           0      -8.361   0.827   3.290  0.00  0.00     0.159 HD
HETATM   46  H           0      -9.191   0.503   4.803  0.00  0.00     0.159 HD
HETATM   47  O           0      -6.493   2.160   4.297  0.00  0.00    -0.274 OA
ENDBRANCH  42  43
ENDBRANCH  41  42
BRANCH  41  48
HETATM   48  N           0      -7.576  -0.120   7.967  0.00  0.00    -0.346 N 
HETATM   49  H           0      -7.591   0.000   8.971  0.00  0.00     0.163 HD
HETATM   50  C           0      -8.304  -1.126   7.441  0.00  0.00     0.241 C 
HETATM   51  O           0      -8.271  -1.434   6.243  0.00  0.00    -0.271 OA
BRANCH  50  52
HETATM   52  C           0      -9.230  -1.885   8.410  0.00  0.00     0.177 C 
BRANCH  52  53
HETATM   53  N           0      -8.563  -3.016   9.046  0.00  0.00    -0.346 N 
HETATM   54  H           0      -7.648  -2.876   9.456  0.00  0.00     0.163 HD
HETATM   55  C           0      -9.184  -4.215   9.215  0.00  0.00     0.236 C 
HETATM   56  O           0     -10.337  -4.429   8.850  0.00  0.00    -0.272 OA
BRANCH  55  57
HETATM   57  C           0      -8.376  -5.312   9.922  0.00  0.00     0.225 C 
BRANCH  57  58
HETATM   58  N           0      -7.527  -6.100   9.031  0.00  0.00    -0.351 N 
HETATM   59  H           0      -6.608  -5.735   8.827  0.00  0.00     0.163 HD
HETATM   60  C           0      -7.860  -7.383   8.758  0.00  0.00     0.248 C 
HETATM   61  O           0      -8.915  -7.878   9.170  0.00  0.00    -0.271 OA
BRANCH  60  62
HETATM   62  C           0      -6.946  -8.258   7.893  0.00  0.00     0.275 C 
BRANCH  62  63
HETATM   63  N           0      -6.567  -9.569   8.563  0.00  0.00    -0.066 N 
HETATM   64  H           0      -7.046  -9.705   9.459  0.00  0.00     0.275 HD
HETATM   65  H           0      -6.739 -10.395   7.982  0.00  0.00     0.275 HD
HETATM   66  H           0      -5.562  -9.570   8.765  0.00  0.00     0.275 HD
ENDBRANCH  62  63
BRANCH  62  67
HETATM   67  C           0      -7.483  -8.557   6.484  0.00  0.00     0.053 C 
BRANCH  67  68
HETATM   68  C           0      -8.403  -7.470   5.913  0.00  0.00     0.115 C 
BRANCH  68  69
HETATM   69  C           0      -7.718  -6.248   5.269  0.00  0.00     0.172 C 
HETATM   70  O           0      -7.280  -5.333   6.015  0.00  0.00    -0.648 OA
HETATM   71  O           0      -7.663  -6.247   3.997  0.00  0.00    -0.648 OA
ENDBRANCH  68  69
ENDBRANCH  67  68
ENDBRANCH  62  67
ENDBRANCH  60  62
ENDBRANCH  57  58
ENDBRANCH  55  57
ENDBRANCH  52  53
BRANCH  52  72
HETATM   72  C           0      -9.797  -0.953   9.506  0.00  0.00     0.038 C 
BRANCH  72  73
HETATM   73  C           0     -11.276  -0.541   9.376  0.00  0.00    -0.020 C 
HETATM   74  C           0     -11.664  -0.184   7.933  0.00  0.00     0.009 C 
HETATM   75  C           0     -12.164  -1.673   9.917  0.00  0.00     0.009 C 
ENDBRANCH  72  73
ENDBRANCH  52  72
ENDBRANCH  50  52
ENDBRANCH  41  48
ENDBRANCH   1  41
TORSDOF 28
ENDMDL
MODEL 5
REMARK VINA RESULT:      -5.0      2.403     12.532
REMARK  28 active torsions:
REMARK  status: ('A' for Active; 'I' for Inactive)
REMARK       I    between atoms: C_1  and  N_3 
REMARK    1  A    between atoms: C_1  and  C_41 
REMARK    2  A    between atoms: N_3  and  C_5 
REMARK    3  A    between atoms: C_5  and  C_6 
REMARK    4  A    between atoms: C_5  and  C_18 
REMARK       I    between atoms: C_18  and  N_19 
REMARK    5  A    between atoms: C_20  and  C_25 
REMARK       I    between atoms: C_25  and  N_26 
REMARK    6  A    between atoms: N_26  and  C_29 
REMARK    7  A    between atoms: C_29  and  C_30 
REMARK    8  A    between atoms: C_29  and  C_38 
REMARK       I    between atoms: C_30  and  N_31 
REMARK    9  A    between atoms: N_31  and  C_34 
REMARK   10  A    between atoms: C_34  and  C_35 
REMARK   11  A    between atoms: C_38  and  O_39 
REMARK   12  A    between atoms: C_6  and  C_7 
REMARK   13  A    between atoms: C_7  and  C_8 
REMARK   14  A    between atoms: C_8  and  N_9 
REMARK       I    between atoms: N_9  and  C_10 
REMARK       I    between atoms: C_10  and  N_12 
REMARK   15  A    between atoms: C_41  and  C_42 
REMARK   16  A    between atoms: C_41  and  N_48 
REMARK       I    between atoms: N_48  and  C_50 
REMARK   17  A    between atoms: C_50  and  C_52 
REMARK   18  A    between atoms: C_52  and  N_53 
REMARK   19  A    between atoms: C_52  and  C_72 
REMARK       I    between atoms: N_53  and  C_55 
REMARK   20  A    between atoms: C_55  and  C_57 
REMARK   21  A    between atoms: C_57  and  N_58 
REMARK       I    between atoms: N_58  and  C_60 
REMARK   22  A    between atoms: C_60  and  C_62 
REMARK   23  A    between atoms: C_62  and  N_63 
REMARK   24  A    between atoms: C_62  and  C_67 
REMARK   25  A    between atoms: C_67  and  C_68 
REMARK   26  A    between atoms: C_68  and  C_69 
REMARK   27  A    between atoms: C_72  and  C_73 
REMARK   28  A    between atoms: C_42  and  C_43 
REMARK       I    between atoms: C_43  and  N_44 
ROOT
HETATM    1  C           0      -3.037 -20.757   8.739  0.00  0.00     0.241 C 
HETATM    2  O           0      -3.381 -20.302   9.836  0.00  0.00    -0.271 OA
HETATM    3  N           0      -3.905 -20.853   7.704  0.00  0.00    -0.346 N 
HETATM    4  H           0      -3.594 -21.264   6.832  0.00  0.00     0.163 HD
ENDROOT
BRANCH   3   5
HETATM    5  C           0      -5.230 -20.242   7.794  0.00  0.00     0.176 C 
BRANCH   5   6
HETATM    6  C           0      -5.228 -18.802   7.256  0.00  0.00     0.036 C 
BRANCH   6   7
HETATM    7  C           0      -5.467 -17.793   8.385  0.00  0.00     0.023 C 
BRANCH   7   8
HETATM    8  C           0      -6.893 -17.245   8.445  0.00  0.00     0.138 C 
BRANCH   8   9
HETATM    9  N           0      -6.925 -16.023   7.646  0.00  0.00    -0.227 N 
HETATM   10  C           0      -7.046 -14.778   8.098  0.00  0.00     0.665 C 
HETATM   11  N           0      -7.217 -14.514   9.401  0.00  0.00    -0.235 N 
HETATM   12  N           0      -6.979 -13.779   7.199  0.00  0.00    -0.235 N 
HETATM   13  H           0      -7.163 -13.568   9.745  0.00  0.00     0.174 HD
HETATM   14  H           0      -7.188 -15.254  10.085  0.00  0.00     0.174 HD
HETATM   15  H           0      -7.302 -12.855   7.442  0.00  0.00     0.174 HD
HETATM   16  H           0      -6.982 -14.064   6.217  0.00  0.00     0.174 HD
HETATM   17  H           0      -6.873 -16.090   6.615  0.00  0.00     0.177 HD
ENDBRANCH   8   9
ENDBRANCH   7   8
ENDBRANCH   6   7
ENDBRANCH   5   6
BRANCH   5  18
HETATM   18  C           0      -6.391 -21.095   7.236  0.00  0.00     0.243 C 
HETATM   19  N           0      -7.622 -21.045   7.812  0.00  0.00    -0.337 N 
HETATM   20  C           0      -8.741 -21.771   7.187  0.00  0.00     0.179 C 
HETATM   21  C           0      -7.936 -20.728   9.222  0.00  0.00     0.127 C 
HETATM   22  C           0      -9.691 -22.126   8.364  0.00  0.00     0.037 C 
HETATM   23  C           0      -8.845 -21.894   9.626  0.00  0.00     0.022 C 
HETATM   24  O           0      -6.168 -21.758   6.219  0.00  0.00    -0.271 OA
BRANCH  20  25
HETATM   25  C           0      -9.498 -20.986   6.103  0.00  0.00     0.241 C 
HETATM   26  N           0     -10.771 -20.598   6.372  0.00  0.00    -0.344 N 
HETATM   27  H           0     -11.187 -20.821   7.272  0.00  0.00     0.163 HD
HETATM   28  O           0      -8.932 -20.752   5.032  0.00  0.00    -0.271 OA
BRANCH  26  29
HETATM   29  C           0     -11.630 -20.018   5.349  0.00  0.00     0.200 C 
BRANCH  29  30
HETATM   30  C           0     -11.718 -18.479   5.342  0.00  0.00     0.242 C 
HETATM   31  N           0     -10.742 -17.795   4.730  0.00  0.00    -0.354 N 
HETATM   32  H           0      -9.979 -18.247   4.230  0.00  0.00     0.162 HD
HETATM   33  O           0     -12.681 -17.936   5.905  0.00  0.00    -0.271 OA
BRANCH  31  34
HETATM   34  C           0     -10.731 -16.349   4.609  0.00  0.00     0.203 C 
BRANCH  34  35
HETATM   35  C           0      -9.726 -15.728   5.621  0.00  0.00     0.307 C 
HETATM   36  O           0      -8.698 -15.191   5.127  0.00  0.00    -0.186 OA
HETATM   37  O           0     -10.053 -15.830   6.828  0.00  0.00    -0.186 OA
ENDBRANCH  34  35
ENDBRANCH  31  34
ENDBRANCH  29  30
BRANCH  29  38
HETATM   38  C           0     -13.052 -20.612   5.418  0.00  0.00     0.199 C 
BRANCH  38  39
HETATM   39  O           0     -13.881 -20.176   4.356  0.00  0.00    -0.398 OA
HETATM   40  H           0     -14.787 -20.039   4.680  0.00  0.00     0.209 HD
ENDBRANCH  38  39
ENDBRANCH  29  38
ENDBRANCH  26  29
ENDBRANCH  20  25
ENDBRANCH   5  18
ENDBRANCH   3   5
BRANCH   1  41
HETATM   41  C           0      -1.582 -21.196   8.477  0.00  0.00     0.185 C 
BRANCH  41  42
HETATM   42  C           0      -1.250 -22.555   9.122  0.00  0.00     0.137 C 
BRANCH  42  43
HETATM   43  C           0      -1.605 -23.774   8.271  0.00  0.00     0.217 C 
HETATM   44  N           0      -0.579 -24.631   8.081  0.00  0.00    -0.370 N 
HETATM   45  H           0      -0.729 -25.399   7.441  0.00  0.00     0.159 HD
HETATM   46  H           0       0.372 -24.442   8.419  0.00  0.00     0.159 HD
HETATM   47  O           0      -2.726 -23.923   7.779  0.00  0.00    -0.274 OA
ENDBRANCH  42  43
ENDBRANCH  41  42
BRANCH  41  48
HETATM   48  N           0      -0.616 -20.229   8.984  0.00  0.00    -0.346 N 
HETATM   49  H           0      -0.163 -20.423   9.867  0.00  0.00     0.163 HD
HETATM   50  C           0      -0.360 -19.045   8.390  0.00  0.00     0.241 C 
HETATM   51  O           0      -0.943 -18.657   7.370  0.00  0.00    -0.271 OA
BRANCH  50  52
HETATM   52  C           0       0.739 -18.176   9.032  0.00  0.00     0.177 C 
BRANCH  52  53
HETATM   53  N           0       1.618 -17.568   8.039  0.00  0.00    -0.346 N 
HETATM   54  H           0       1.271 -16.792   7.489  0.00  0.00     0.163 HD
HETATM   55  C           0       2.924 -17.928   7.919  0.00  0.00     0.236 C 
HETATM   56  O           0       3.452 -18.780   8.629  0.00  0.00    -0.272 OA
BRANCH  55  57
HETATM   57  C           0       3.743 -17.191   6.850  0.00  0.00     0.225 C 
BRANCH  57  58
HETATM   58  N           0       5.072 -16.774   7.293  0.00  0.00    -0.351 N 
HETATM   59  H           0       5.786 -17.486   7.346  0.00  0.00     0.163 HD
HETATM   60  C           0       5.377 -15.455   7.331  0.00  0.00     0.248 C 
HETATM   61  O           0       4.531 -14.590   7.086  0.00  0.00    -0.271 OA
BRANCH  60  62
HETATM   62  C           0       6.788 -14.994   7.714  0.00  0.00     0.275 C 
BRANCH  62  63
HETATM   63  N           0       6.797 -13.989   8.854  0.00  0.00    -0.066 N 
HETATM   64  H           0       7.574 -14.141   9.506  0.00  0.00     0.275 HD
HETATM   65  H           0       6.829 -13.013   8.545  0.00  0.00     0.275 HD
HETATM   66  H           0       5.934 -14.085   9.399  0.00  0.00     0.275 HD
ENDBRANCH  62  63
BRANCH  62  67
HETATM   67  C           0       7.771 -16.129   8.043  0.00  0.00     0.053 C 
BRANCH  67  68
HETATM   68  C           0       8.771 -16.446   6.924  0.00  0.00     0.115 C 
BRANCH  68  69
HETATM   69  C           0       8.314 -17.451   5.848  0.00  0.00     0.172 C 
HETATM   70  O           0       8.310 -18.679   6.127  0.00  0.00    -0.648 OA
HETATM   71  O           0       7.985 -16.952   4.724  0.00  0.00    -0.648 OA
ENDBRANCH  68  69
ENDBRANCH  67  68
ENDBRANCH  62  67
ENDBRANCH  60  62
ENDBRANCH  57  58
ENDBRANCH  55  57
ENDBRANCH  52  53
BRANCH  52  72
HETATM   72  C           0       0.140 -17.064   9.924  0.00  0.00     0.038 C 
BRANCH  72  73
HETATM   73  C           0      -1.147 -16.383   9.421  0.00  0.00    -0.020 C 
HETATM   74  C           0      -2.315 -16.529  10.408  0.00  0.00     0.009 C 
HETATM   75  C           0      -0.854 -14.901   9.135  0.00  0.00     0.009 C 
ENDBRANCH  72  73
ENDBRANCH  52  72
ENDBRANCH  50  52
ENDBRANCH  41  48
ENDBRANCH   1  41
TORSDOF 28
ENDMDL
MODEL 6
REMARK VINA RESULT:      -5.0     16.434     20.026
REMARK  28 active torsions:
REMARK  status: ('A' for Active; 'I' for Inactive)
REMARK       I    between atoms: C_1  and  N_3 
REMARK    1  A    between atoms: C_1  and  C_41 
REMARK    2  A    between atoms: N_3  and  C_5 
REMARK    3  A    between atoms: C_5  and  C_6 
REMARK    4  A    between atoms: C_5  and  C_18 
REMARK       I    between atoms: C_18  and  N_19 
REMARK    5  A    between atoms: C_20  and  C_25 
REMARK       I    between atoms: C_25  and  N_26 
REMARK    6  A    between atoms: N_26  and  C_29 
REMARK    7  A    between atoms: C_29  and  C_30 
REMARK    8  A    between atoms: C_29  and  C_38 
REMARK       I    between atoms: C_30  and  N_31 
REMARK    9  A    between atoms: N_31  and  C_34 
REMARK   10  A    between atoms: C_34  and  C_35 
REMARK   11  A    between atoms: C_38  and  O_39 
REMARK   12  A    between atoms: C_6  and  C_7 
REMARK   13  A    between atoms: C_7  and  C_8 
REMARK   14  A    between atoms: C_8  and  N_9 
REMARK       I    between atoms: N_9  and  C_10 
REMARK       I    between atoms: C_10  and  N_12 
REMARK   15  A    between atoms: C_41  and  C_42 
REMARK   16  A    between atoms: C_41  and  N_48 
REMARK       I    between atoms: N_48  and  C_50 
REMARK   17  A    between atoms: C_50  and  C_52 
REMARK   18  A    between atoms: C_52  and  N_53 
REMARK   19  A    between atoms: C_52  and  C_72 
REMARK       I    between atoms: N_53  and  C_55 
REMARK   20  A    between atoms: C_55  and  C_57 
REMARK   21  A    between atoms: C_57  and  N_58 
REMARK       I    between atoms: N_58  and  C_60 
REMARK   22  A    between atoms: C_60  and  C_62 
REMARK   23  A    between atoms: C_62  and  N_63 
REMARK   24  A    between atoms: C_62  and  C_67 
REMARK   25  A    between atoms: C_67  and  C_68 
REMARK   26  A    between atoms: C_68  and  C_69 
REMARK   27  A    between atoms: C_72  and  C_73 
REMARK   28  A    between atoms: C_42  and  C_43 
REMARK       I    between atoms: C_43  and  N_44 
ROOT
HETATM    1  C           0      -5.125   0.844   7.649  0.00  0.00     0.241 C 
HETATM    2  O           0      -5.413   0.668   8.839  0.00  0.00    -0.271 OA
HETATM    3  N           0      -4.101   1.647   7.276  0.00  0.00    -0.346 N 
HETATM    4  H           0      -3.919   1.794   6.290  0.00  0.00     0.163 HD
ENDROOT
BRANCH   3   5
HETATM    5  C           0      -3.180   2.182   8.277  0.00  0.00     0.176 C 
BRANCH   5   6
HETATM    6  C           0      -1.990   1.238   8.516  0.00  0.00     0.036 C 
BRANCH   6   7
HETATM    7  C           0      -1.531   1.290   9.977  0.00  0.00     0.023 C 
BRANCH   7   8
HETATM    8  C           0      -0.160   1.934  10.181  0.00  0.00     0.138 C 
BRANCH   8   9
HETATM    9  N           0       0.806   0.855  10.372  0.00  0.00    -0.227 N 
HETATM   10  C           0       2.045   0.801   9.893  0.00  0.00     0.665 C 
HETATM   11  N           0       2.536   1.759   9.095  0.00  0.00    -0.235 N 
HETATM   12  N           0       2.805  -0.252  10.248  0.00  0.00    -0.235 N 
HETATM   13  H           0       3.516   1.778   8.858  0.00  0.00     0.174 HD
HETATM   14  H           0       1.998   2.586   8.892  0.00  0.00     0.174 HD
HETATM   15  H           0       3.645  -0.469   9.733  0.00  0.00     0.174 HD
HETATM   16  H           0       2.320  -1.002  10.746  0.00  0.00     0.174 HD
HETATM   17  H           0       0.529   0.018  10.913  0.00  0.00     0.177 HD
ENDBRANCH   8   9
ENDBRANCH   7   8
ENDBRANCH   6   7
ENDBRANCH   5   6
BRANCH   5  18
HETATM   18  C           0      -2.754   3.651   8.067  0.00  0.00     0.243 C 
HETATM   19  N           0      -2.870   4.555   9.078  0.00  0.00    -0.337 N 
HETATM   20  C           0      -2.342   5.917   8.891  0.00  0.00     0.179 C 
HETATM   21  C           0      -3.836   4.524  10.197  0.00  0.00     0.127 C 
HETATM   22  C           0      -3.227   6.814   9.800  0.00  0.00     0.037 C 
HETATM   23  C           0      -4.437   5.933  10.149  0.00  0.00     0.022 C 
HETATM   24  O           0      -2.248   3.944   6.980  0.00  0.00    -0.271 OA
BRANCH  20  25
HETATM   25  C           0      -0.856   6.091   9.248  0.00  0.00     0.241 C 
HETATM   26  N           0      -0.004   6.464   8.259  0.00  0.00    -0.344 N 
HETATM   27  H           0      -0.361   6.628   7.321  0.00  0.00     0.163 HD
HETATM   28  O           0      -0.492   5.872  10.406  0.00  0.00    -0.271 OA
BRANCH  26  29
HETATM   29  C           0       1.439   6.475   8.450  0.00  0.00     0.200 C 
BRANCH  29  30
HETATM   30  C           0       2.249   7.257   7.398  0.00  0.00     0.242 C 
HETATM   31  N           0       2.192   8.596   7.428  0.00  0.00    -0.354 N 
HETATM   32  H           0       1.681   9.112   8.140  0.00  0.00     0.162 HD
HETATM   33  O           0       2.915   6.622   6.567  0.00  0.00    -0.271 OA
BRANCH  31  34
HETATM   34  C           0       2.944   9.450   6.527  0.00  0.00     0.203 C 
BRANCH  34  35
HETATM   35  C           0       2.549  10.940   6.736  0.00  0.00     0.307 C 
HETATM   36  O           0       1.384  11.263   6.377  0.00  0.00    -0.186 OA
HETATM   37  O           0       3.440  11.661   7.244  0.00  0.00    -0.186 OA
ENDBRANCH  34  35
ENDBRANCH  31  34
ENDBRANCH  29  30
BRANCH  29  38
HETATM   38  C           0       1.994   5.038   8.559  0.00  0.00     0.199 C 
BRANCH  38  39
HETATM   39  O           0       3.347   5.003   8.973  0.00  0.00    -0.398 OA
HETATM   40  H           0       3.730   5.895   8.922  0.00  0.00     0.209 HD
ENDBRANCH  38  39
ENDBRANCH  29  38
ENDBRANCH  26  29
ENDBRANCH  20  25
ENDBRANCH   5  18
ENDBRANCH   3   5
BRANCH   1  41
HETATM   41  C           0      -5.891   0.116   6.525  0.00  0.00     0.185 C 
BRANCH  41  42
HETATM   42  C           0      -6.268   1.056   5.364  0.00  0.00     0.137 C 
BRANCH  42  43
HETATM   43  C           0      -7.748   1.432   5.297  0.00  0.00     0.217 C 
HETATM   44  N           0      -8.367   1.038   4.163  0.00  0.00    -0.370 N 
HETATM   45  H           0      -9.317   1.351   4.021  0.00  0.00     0.159 HD
HETATM   46  H           0      -7.867   0.590   3.385  0.00  0.00     0.159 HD
HETATM   47  O           0      -8.301   2.073   6.195  0.00  0.00    -0.274 OA
ENDBRANCH  42  43
ENDBRANCH  41  42
BRANCH  41  48
HETATM   48  N           0      -7.125  -0.494   7.006  0.00  0.00    -0.346 N 
HETATM   49  H           0      -7.617  -0.043   7.767  0.00  0.00     0.163 HD
HETATM   50  C           0      -7.599  -1.676   6.561  0.00  0.00     0.241 C 
HETATM   51  O           0      -7.015  -2.366   5.716  0.00  0.00    -0.271 OA
BRANCH  50  52
HETATM   52  C           0      -8.951  -2.136   7.138  0.00  0.00     0.177 C 
BRANCH  52  53
HETATM   53  N           0      -8.829  -3.348   7.942  0.00  0.00    -0.346 N 
HETATM   54  H           0      -8.627  -3.260   8.930  0.00  0.00     0.163 HD
HETATM   55  C           0      -9.101  -4.579   7.432  0.00  0.00     0.236 C 
HETATM   56  O           0      -9.466  -4.759   6.272  0.00  0.00    -0.272 OA
BRANCH  55  57
HETATM   57  C           0      -8.957  -5.767   8.393  0.00  0.00     0.225 C 
BRANCH  57  58
HETATM   58  N           0      -7.765  -6.582   8.166  0.00  0.00    -0.351 N 
HETATM   59  H           0      -6.971  -6.416   8.768  0.00  0.00     0.163 HD
HETATM   60  C           0      -7.853  -7.689   7.392  0.00  0.00     0.248 C 
HETATM   61  O           0      -8.897  -7.980   6.798  0.00  0.00    -0.271 OA
BRANCH  60  62
HETATM   62  C           0      -6.639  -8.606   7.203  0.00  0.00     0.275 C 
BRANCH  62  63
HETATM   63  N           0      -6.620  -9.297   5.850  0.00  0.00    -0.066 N 
HETATM   64  H           0      -6.338 -10.282   5.914  0.00  0.00     0.275 HD
HETATM   65  H           0      -7.513  -9.254   5.350  0.00  0.00     0.275 HD
HETATM   66  H           0      -5.934  -8.836   5.242  0.00  0.00     0.275 HD
ENDBRANCH  62  63
BRANCH  62  67
HETATM   67  C           0      -5.278  -7.931   7.437  0.00  0.00     0.053 C 
BRANCH  67  68
HETATM   68  C           0      -4.584  -8.340   8.741  0.00  0.00     0.115 C 
BRANCH  68  69
HETATM   69  C           0      -5.496  -8.735   9.920  0.00  0.00     0.172 C 
HETATM   70  O           0      -5.649  -9.956  10.187  0.00  0.00    -0.648 OA
HETATM   71  O           0      -6.056  -7.772  10.536  0.00  0.00    -0.648 OA
ENDBRANCH  68  69
ENDBRANCH  67  68
ENDBRANCH  62  67
ENDBRANCH  60  62
ENDBRANCH  57  58
ENDBRANCH  55  57
ENDBRANCH  52  53
BRANCH  52  72
HETATM   72  C           0      -9.615  -1.030   7.990  0.00  0.00     0.038 C 
BRANCH  72  73
HETATM   73  C           0      -9.767  -1.308   9.498  0.00  0.00    -0.020 C 
HETATM   74  C           0      -8.801  -0.473  10.351  0.00  0.00     0.009 C 
HETATM   75  C           0     -11.225  -1.053   9.913  0.00  0.00     0.009 C 
ENDBRANCH  72  73
ENDBRANCH  52  72
ENDBRANCH  50  52
ENDBRANCH  41  48
ENDBRANCH   1  41
TORSDOF 28
ENDMDL
MODEL 7
REMARK VINA RESULT:      -5.0      4.998      9.755
REMARK  28 active torsions:
REMARK  status: ('A' for Active; 'I' for Inactive)
REMARK       I    between atoms: C_1  and  N_3 
REMARK    1  A    between atoms: C_1  and  C_41 
REMARK    2  A    between atoms: N_3  and  C_5 
REMARK    3  A    between atoms: C_5  and  C_6 
REMARK    4  A    between atoms: C_5  and  C_18 
REMARK       I    between atoms: C_18  and  N_19 
REMARK    5  A    between atoms: C_20  and  C_25 
REMARK       I    between atoms: C_25  and  N_26 
REMARK    6  A    between atoms: N_26  and  C_29 
REMARK    7  A    between atoms: C_29  and  C_30 
REMARK    8  A    between atoms: C_29  and  C_38 
REMARK       I    between atoms: C_30  and  N_31 
REMARK    9  A    between atoms: N_31  and  C_34 
REMARK   10  A    between atoms: C_34  and  C_35 
REMARK   11  A    between atoms: C_38  and  O_39 
REMARK   12  A    between atoms: C_6  and  C_7 
REMARK   13  A    between atoms: C_7  and  C_8 
REMARK   14  A    between atoms: C_8  and  N_9 
REMARK       I    between atoms: N_9  and  C_10 
REMARK       I    between atoms: C_10  and  N_12 
REMARK   15  A    between atoms: C_41  and  C_42 
REMARK   16  A    between atoms: C_41  and  N_48 
REMARK       I    between atoms: N_48  and  C_50 
REMARK   17  A    between atoms: C_50  and  C_52 
REMARK   18  A    between atoms: C_52  and  N_53 
REMARK   19  A    between atoms: C_52  and  C_72 
REMARK       I    between atoms: N_53  and  C_55 
REMARK   20  A    between atoms: C_55  and  C_57 
REMARK   21  A    between atoms: C_57  and  N_58 
REMARK       I    between atoms: N_58  and  C_60 
REMARK   22  A    between atoms: C_60  and  C_62 
REMARK   23  A    between atoms: C_62  and  N_63 
REMARK   24  A    between atoms: C_62  and  C_67 
REMARK   25  A    between atoms: C_67  and  C_68 
REMARK   26  A    between atoms: C_68  and  C_69 
REMARK   27  A    between atoms: C_72  and  C_73 
REMARK   28  A    between atoms: C_42  and  C_43 
REMARK       I    between atoms: C_43  and  N_44 
ROOT
HETATM    1  C           0       4.351 -19.113   8.500  0.00  0.00     0.241 C 
HETATM    2  O           0       3.961 -18.493   7.505  0.00  0.00    -0.271 OA
HETATM    3  N           0       5.631 -19.034   8.934  0.00  0.00    -0.346 N 
HETATM    4  H           0       5.921 -19.586   9.733  0.00  0.00     0.163 HD
ENDROOT
BRANCH   3   5
HETATM    5  C           0       6.549 -18.059   8.348  0.00  0.00     0.176 C 
BRANCH   5   6
HETATM    6  C           0       6.577 -16.750   9.154  0.00  0.00     0.036 C 
BRANCH   6   7
HETATM    7  C           0       6.904 -15.556   8.252  0.00  0.00     0.023 C 
BRANCH   7   8
HETATM    8  C           0       5.677 -14.795   7.750  0.00  0.00     0.138 C 
BRANCH   8   9
HETATM    9  N           0       4.960 -15.677   6.832  0.00  0.00    -0.227 N 
HETATM   10  C           0       3.875 -15.378   6.124  0.00  0.00     0.665 C 
HETATM   11  N           0       3.265 -14.189   6.235  0.00  0.00    -0.235 N 
HETATM   12  N           0       3.408 -16.311   5.274  0.00  0.00    -0.235 N 
HETATM   13  H           0       2.534 -13.925   5.593  0.00  0.00     0.174 HD
HETATM   14  H           0       3.657 -13.461   6.810  0.00  0.00     0.174 HD
HETATM   15  H           0       2.473 -16.238   4.904  0.00  0.00     0.174 HD
HETATM   16  H           0       3.845 -17.233   5.344  0.00  0.00     0.174 HD
HETATM   17  H           0       5.287 -16.650   6.707  0.00  0.00     0.177 HD
ENDBRANCH   8   9
ENDBRANCH   7   8
ENDBRANCH   6   7
ENDBRANCH   5   6
BRANCH   5  18
HETATM   18  C           0       7.959 -18.594   8.014  0.00  0.00     0.243 C 
HETATM   19  N           0       8.414 -18.587   6.732  0.00  0.00    -0.337 N 
HETATM   20  C           0       9.805 -18.987   6.458  0.00  0.00     0.179 C 
HETATM   21  C           0       7.604 -18.658   5.497  0.00  0.00     0.127 C 
HETATM   22  C           0       9.775 -19.566   5.016  0.00  0.00     0.037 C 
HETATM   23  C           0       8.284 -19.793   4.723  0.00  0.00     0.022 C 
HETATM   24  O           0       8.665 -18.957   8.959  0.00  0.00    -0.271 OA
BRANCH  20  25
HETATM   25  C           0      10.837 -17.851   6.560  0.00  0.00     0.241 C 
HETATM   26  N           0      11.131 -17.369   7.795  0.00  0.00    -0.344 N 
HETATM   27  H           0      10.679 -17.768   8.613  0.00  0.00     0.163 HD
HETATM   28  O           0      11.345 -17.413   5.525  0.00  0.00    -0.271 OA
BRANCH  26  29
HETATM   29  C           0      11.949 -16.179   7.981  0.00  0.00     0.200 C 
BRANCH  29  30
HETATM   30  C           0      11.552 -14.953   7.135  0.00  0.00     0.242 C 
HETATM   31  N           0      12.533 -14.179   6.650  0.00  0.00    -0.354 N 
HETATM   32  H           0      13.519 -14.394   6.773  0.00  0.00     0.162 HD
HETATM   33  O           0      10.347 -14.729   6.941  0.00  0.00    -0.271 OA
BRANCH  31  34
HETATM   34  C           0      12.297 -13.026   5.801  0.00  0.00     0.203 C 
BRANCH  34  35
HETATM   35  C           0      12.847 -13.286   4.369  0.00  0.00     0.307 C 
HETATM   36  O           0      13.118 -14.484   4.084  0.00  0.00    -0.186 OA
HETATM   37  O           0      12.961 -12.265   3.649  0.00  0.00    -0.186 OA
ENDBRANCH  34  35
ENDBRANCH  31  34
ENDBRANCH  29  30
BRANCH  29  38
HETATM   38  C           0      13.444 -16.494   7.757  0.00  0.00     0.199 C 
BRANCH  38  39
HETATM   39  O           0      13.786 -16.584   6.386  0.00  0.00    -0.398 OA
HETATM   40  H           0      13.036 -16.944   5.883  0.00  0.00     0.209 HD
ENDBRANCH  38  39
ENDBRANCH  29  38
ENDBRANCH  26  29
ENDBRANCH  20  25
ENDBRANCH   5  18
ENDBRANCH   3   5
BRANCH   1  41
HETATM   41  C           0       3.381 -19.977   9.333  0.00  0.00     0.185 C 
BRANCH  41  42
HETATM   42  C           0       3.674 -21.484   9.205  0.00  0.00     0.137 C 
BRANCH  42  43
HETATM   43  C           0       2.972 -22.178   8.038  0.00  0.00     0.217 C 
HETATM   44  N           0       3.371 -23.452   7.832  0.00  0.00    -0.370 N 
HETATM   45  H           0       3.016 -23.921   7.011  0.00  0.00     0.159 HD
HETATM   46  H           0       4.131 -23.889   8.368  0.00  0.00     0.159 HD
HETATM   47  O           0       2.143 -21.594   7.334  0.00  0.00    -0.274 OA
ENDBRANCH  42  43
ENDBRANCH  41  42
BRANCH  41  48
HETATM   48  N           0       1.991 -19.772   8.946  0.00  0.00    -0.346 N 
HETATM   49  H           0       1.651 -20.240   8.116  0.00  0.00     0.163 HD
HETATM   50  C           0       1.156 -18.920   9.576  0.00  0.00     0.241 C 
HETATM   51  O           0       1.501 -18.212  10.530  0.00  0.00    -0.271 OA
BRANCH  50  52
HETATM   52  C           0      -0.298 -18.880   9.067  0.00  0.00     0.177 C 
BRANCH  52  53
HETATM   53  N           0      -0.610 -19.998   8.183  0.00  0.00    -0.346 N 
HETATM   54  H           0      -0.303 -20.927   8.444  0.00  0.00     0.163 HD
HETATM   55  C           0      -1.404 -19.850   7.089  0.00  0.00     0.236 C 
HETATM   56  O           0      -1.911 -18.777   6.770  0.00  0.00    -0.272 OA
BRANCH  55  57
HETATM   57  C           0      -1.671 -21.113   6.259  0.00  0.00     0.225 C 
BRANCH  57  58
HETATM   58  N           0      -0.653 -22.152   6.403  0.00  0.00    -0.351 N 
HETATM   59  H           0       0.312 -21.854   6.418  0.00  0.00     0.163 HD
HETATM   60  C           0      -1.021 -23.394   6.798  0.00  0.00     0.248 C 
HETATM   61  O           0      -2.209 -23.696   6.952  0.00  0.00    -0.271 OA
BRANCH  60  62
HETATM   62  C           0       0.035 -24.480   7.035  0.00  0.00     0.275 C 
BRANCH  62  63
HETATM   63  N           0      -0.276 -25.360   8.235  0.00  0.00    -0.066 N 
HETATM   64  H           0      -1.283 -25.456   8.402  0.00  0.00     0.275 HD
HETATM   65  H           0       0.127 -26.300   8.174  0.00  0.00     0.275 HD
HETATM   66  H           0       0.122 -24.936   9.080  0.00  0.00     0.275 HD
ENDBRANCH  62  63
BRANCH  62  67
HETATM   67  C           0       0.321 -25.378   5.820  0.00  0.00     0.053 C 
BRANCH  67  68
HETATM   68  C           0       1.030 -26.695   6.159  0.00  0.00     0.115 C 
BRANCH  68  69
HETATM   69  C           0       2.529 -26.786   5.808  0.00  0.00     0.172 C 
HETATM   70  O           0       3.025 -27.915   5.554  0.00  0.00    -0.648 OA
HETATM   71  O           0       3.171 -25.687   5.821  0.00  0.00    -0.648 OA
ENDBRANCH  68  69
ENDBRANCH  67  68
ENDBRANCH  62  67
ENDBRANCH  60  62
ENDBRANCH  57  58
ENDBRANCH  55  57
ENDBRANCH  52  53
BRANCH  52  72
HETATM   72  C           0      -1.311 -18.862  10.235  0.00  0.00     0.038 C 
BRANCH  72  73
HETATM   73  C           0      -2.166 -17.591  10.399  0.00  0.00    -0.020 C 
HETATM   74  C           0      -1.487 -16.345   9.813  0.00  0.00     0.009 C 
HETATM   75  C           0      -3.541 -17.821   9.752  0.00  0.00     0.009 C 
ENDBRANCH  72  73
ENDBRANCH  52  72
ENDBRANCH  50  52
ENDBRANCH  41  48
ENDBRANCH   1  41
TORSDOF 28
ENDMDL
MODEL 8
REMARK VINA RESULT:      -4.9      4.008      7.485
REMARK  28 active torsions:
REMARK  status: ('A' for Active; 'I' for Inactive)
REMARK       I    between atoms: C_1  and  N_3 
REMARK    1  A    between atoms: C_1  and  C_41 
REMARK    2  A    between atoms: N_3  and  C_5 
REMARK    3  A    between atoms: C_5  and  C_6 
REMARK    4  A    between atoms: C_5  and  C_18 
REMARK       I    between atoms: C_18  and  N_19 
REMARK    5  A    between atoms: C_20  and  C_25 
REMARK       I    between atoms: C_25  and  N_26 
REMARK    6  A    between atoms: N_26  and  C_29 
REMARK    7  A    between atoms: C_29  and  C_30 
REMARK    8  A    between atoms: C_29  and  C_38 
REMARK       I    between atoms: C_30  and  N_31 
REMARK    9  A    between atoms: N_31  and  C_34 
REMARK   10  A    between atoms: C_34  and  C_35 
REMARK   11  A    between atoms: C_38  and  O_39 
REMARK   12  A    between atoms: C_6  and  C_7 
REMARK   13  A    between atoms: C_7  and  C_8 
REMARK   14  A    between atoms: C_8  and  N_9 
REMARK       I    between atoms: N_9  and  C_10 
REMARK       I    between atoms: C_10  and  N_12 
REMARK   15  A    between atoms: C_41  and  C_42 
REMARK   16  A    between atoms: C_41  and  N_48 
REMARK       I    between atoms: N_48  and  C_50 
REMARK   17  A    between atoms: C_50  and  C_52 
REMARK   18  A    between atoms: C_52  and  N_53 
REMARK   19  A    between atoms: C_52  and  C_72 
REMARK       I    between atoms: N_53  and  C_55 
REMARK   20  A    between atoms: C_55  and  C_57 
REMARK   21  A    between atoms: C_57  and  N_58 
REMARK       I    between atoms: N_58  and  C_60 
REMARK   22  A    between atoms: C_60  and  C_62 
REMARK   23  A    between atoms: C_62  and  N_63 
REMARK   24  A    between atoms: C_62  and  C_67 
REMARK   25  A    between atoms: C_67  and  C_68 
REMARK   26  A    between atoms: C_68  and  C_69 
REMARK   27  A    between atoms: C_72  and  C_73 
REMARK   28  A    between atoms: C_42  and  C_43 
REMARK       I    between atoms: C_43  and  N_44 
ROOT
HETATM    1  C           0      -1.382 -21.308   8.167  0.00  0.00     0.241 C 
HETATM    2  O           0      -1.658 -20.581   7.206  0.00  0.00    -0.271 OA
HETATM    3  N           0      -0.575 -20.889   9.169  0.00  0.00    -0.346 N 
HETATM    4  H           0      -0.343 -21.527   9.922  0.00  0.00     0.163 HD
ENDROOT
BRANCH   3   5
HETATM    5  C           0      -0.157 -19.490   9.243  0.00  0.00     0.176 C 
BRANCH   5   6
HETATM    6  C           0      -1.071 -18.673  10.170  0.00  0.00     0.036 C 
BRANCH   6   7
HETATM    7  C           0      -1.837 -17.603   9.383  0.00  0.00     0.023 C 
BRANCH   7   8
HETATM    8  C           0      -3.357 -17.755   9.435  0.00  0.00     0.138 C 
BRANCH   8   9
HETATM    9  N           0      -3.721 -18.831   8.517  0.00  0.00    -0.227 N 
HETATM   10  C           0      -4.751 -18.847   7.676  0.00  0.00     0.665 C 
HETATM   11  N           0      -5.638 -17.844   7.629  0.00  0.00    -0.235 N 
HETATM   12  N           0      -4.870 -19.908   6.857  0.00  0.00    -0.235 N 
HETATM   13  H           0      -6.327 -17.801   6.893  0.00  0.00     0.174 HD
HETATM   14  H           0      -5.508 -17.013   8.184  0.00  0.00     0.174 HD
HETATM   15  H           0      -5.742 -20.089   6.384  0.00  0.00     0.174 HD
HETATM   16  H           0      -4.236 -20.688   7.045  0.00  0.00     0.174 HD
HETATM   17  H           0      -3.156 -19.697   8.504  0.00  0.00     0.177 HD
ENDBRANCH   8   9
ENDBRANCH   7   8
ENDBRANCH   6   7
ENDBRANCH   5   6
BRANCH   5  18
HETATM   18  C           0       1.346 -19.262   9.519  0.00  0.00     0.243 C 
HETATM   19  N           0       2.287 -19.783   8.688  0.00  0.00    -0.337 N 
HETATM   20  C           0       3.705 -19.448   8.903  0.00  0.00     0.179 C 
HETATM   21  C           0       2.166 -20.995   7.849  0.00  0.00     0.127 C 
HETATM   22  C           0       4.491 -20.674   8.359  0.00  0.00     0.037 C 
HETATM   23  C           0       3.431 -21.777   8.217  0.00  0.00     0.022 C 
HETATM   24  O           0       1.642 -18.538  10.475  0.00  0.00    -0.271 OA
BRANCH  20  25
HETATM   25  C           0       4.178 -18.157   8.213  0.00  0.00     0.241 C 
HETATM   26  N           0       5.438 -17.724   8.471  0.00  0.00    -0.344 N 
HETATM   27  H           0       6.037 -18.257   9.097  0.00  0.00     0.163 HD
HETATM   28  O           0       3.397 -17.560   7.468  0.00  0.00    -0.271 OA
BRANCH  26  29
HETATM   29  C           0       5.912 -16.424   8.017  0.00  0.00     0.200 C 
BRANCH  29  30
HETATM   30  C           0       6.731 -16.427   6.712  0.00  0.00     0.242 C 
HETATM   31  N           0       8.058 -16.261   6.800  0.00  0.00    -0.354 N 
HETATM   32  H           0       8.548 -16.184   7.688  0.00  0.00     0.162 HD
HETATM   33  O           0       6.133 -16.577   5.635  0.00  0.00    -0.271 OA
BRANCH  31  34
HETATM   34  C           0       8.947 -16.293   5.654  0.00  0.00     0.203 C 
BRANCH  34  35
HETATM   35  C           0      10.271 -15.543   5.974  0.00  0.00     0.307 C 
HETATM   36  O           0      11.177 -15.613   5.100  0.00  0.00    -0.186 OA
HETATM   37  O           0      10.292 -14.944   7.076  0.00  0.00    -0.186 OA
ENDBRANCH  34  35
ENDBRANCH  31  34
ENDBRANCH  29  30
BRANCH  29  38
HETATM   38  C           0       6.717 -15.710   9.125  0.00  0.00     0.199 C 
BRANCH  38  39
HETATM   39  O           0       6.769 -14.307   8.946  0.00  0.00    -0.398 OA
HETATM   40  H           0       6.131 -14.037   8.264  0.00  0.00     0.209 HD
ENDBRANCH  38  39
ENDBRANCH  29  38
ENDBRANCH  26  29
ENDBRANCH  20  25
ENDBRANCH   5  18
ENDBRANCH   3   5
BRANCH   1  41
HETATM   41  C           0      -1.984 -22.723   8.297  0.00  0.00     0.185 C 
BRANCH  41  42
HETATM   42  C           0      -1.088 -23.807   7.670  0.00  0.00     0.137 C 
BRANCH  42  43
HETATM   43  C           0      -1.480 -24.223   6.252  0.00  0.00     0.217 C 
HETATM   44  N           0      -1.803 -25.529   6.131  0.00  0.00    -0.370 N 
HETATM   45  H           0      -1.969 -25.880   5.198  0.00  0.00     0.159 HD
HETATM   46  H           0      -1.722 -26.196   6.908  0.00  0.00     0.159 HD
HETATM   47  O           0      -1.461 -23.429   5.309  0.00  0.00    -0.274 OA
ENDBRANCH  42  43
ENDBRANCH  41  42
BRANCH  41  48
HETATM   48  N           0      -3.294 -22.823   7.663  0.00  0.00    -0.346 N 
HETATM   49  H           0      -3.384 -22.521   6.702  0.00  0.00     0.163 HD
HETATM   50  C           0      -4.412 -23.206   8.312  0.00  0.00     0.241 C 
HETATM   51  O           0      -4.436 -23.485   9.517  0.00  0.00    -0.271 OA
BRANCH  50  52
HETATM   52  C           0      -5.695 -23.315   7.466  0.00  0.00     0.177 C 
BRANCH  52  53
HETATM   53  N           0      -5.973 -24.687   7.052  0.00  0.00    -0.346 N 
HETATM   54  H           0      -6.658 -25.224   7.568  0.00  0.00     0.163 HD
HETATM   55  C           0      -5.434 -25.219   5.922  0.00  0.00     0.236 C 
HETATM   56  O           0      -4.685 -24.592   5.177  0.00  0.00    -0.272 OA
BRANCH  55  57
HETATM   57  C           0      -5.830 -26.665   5.589  0.00  0.00     0.225 C 
BRANCH  57  58
HETATM   58  N           0      -5.593 -27.616   6.673  0.00  0.00    -0.351 N 
HETATM   59  H           0      -4.644 -27.935   6.809  0.00  0.00     0.163 HD
HETATM   60  C           0      -6.549 -27.806   7.613  0.00  0.00     0.248 C 
HETATM   61  O           0      -7.655 -27.262   7.527  0.00  0.00    -0.271 OA
BRANCH  60  62
HETATM   62  C           0      -6.295 -28.737   8.805  0.00  0.00     0.275 C 
BRANCH  62  63
HETATM   63  N           0      -7.403 -29.756   9.011  0.00  0.00    -0.066 N 
HETATM   64  H           0      -8.208 -29.366   9.514  0.00  0.00     0.275 HD
HETATM   65  H           0      -7.746 -30.176   8.141  0.00  0.00     0.275 HD
HETATM   66  H           0      -7.050 -30.532   9.580  0.00  0.00     0.275 HD
ENDBRANCH  62  63
BRANCH  62  67
HETATM   67  C           0      -4.944 -29.469   8.774  0.00  0.00     0.053 C 
BRANCH  67  68
HETATM   68  C           0      -3.803 -28.724   9.477  0.00  0.00     0.115 C 
BRANCH  68  69
HETATM   69  C           0      -2.961 -27.767   8.610  0.00  0.00     0.172 C 
HETATM   70  O           0      -2.001 -28.236   7.943  0.00  0.00    -0.648 OA
HETATM   71  O           0      -3.296 -26.539   8.650  0.00  0.00    -0.648 OA
ENDBRANCH  68  69
ENDBRANCH  67  68
ENDBRANCH  62  67
ENDBRANCH  60  62
ENDBRANCH  57  58
ENDBRANCH  55  57
ENDBRANCH  52  53
BRANCH  52  72
HETATM   72  C           0      -6.925 -22.757   8.219  0.00  0.00     0.038 C 
BRANCH  72  73
HETATM   73  C           0      -7.983 -23.777   8.681  0.00  0.00    -0.020 C 
HETATM   74  C           0      -8.057 -23.897  10.210  0.00  0.00     0.009 C 
HETATM   75  C           0      -9.350 -23.387   8.096  0.00  0.00     0.009 C 
ENDBRANCH  72  73
ENDBRANCH  52  72
ENDBRANCH  50  52
ENDBRANCH  41  48
ENDBRANCH   1  41
TORSDOF 28
ENDMDL
MODEL 9
REMARK VINA RESULT:      -4.9      1.910      2.543
REMARK  28 active torsions:
REMARK  status: ('A' for Active; 'I' for Inactive)
REMARK       I    between atoms: C_1  and  N_3 
REMARK    1  A    between atoms: C_1  and  C_41 
REMARK    2  A    between atoms: N_3  and  C_5 
REMARK    3  A    between atoms: C_5  and  C_6 
REMARK    4  A    between atoms: C_5  and  C_18 
REMARK       I    between atoms: C_18  and  N_19 
REMARK    5  A    between atoms: C_20  and  C_25 
REMARK       I    between atoms: C_25  and  N_26 
REMARK    6  A    between atoms: N_26  and  C_29 
REMARK    7  A    between atoms: C_29  and  C_30 
REMARK    8  A    between atoms: C_29  and  C_38 
REMARK       I    between atoms: C_30  and  N_31 
REMARK    9  A    between atoms: N_31  and  C_34 
REMARK   10  A    between atoms: C_34  and  C_35 
REMARK   11  A    between atoms: C_38  and  O_39 
REMARK   12  A    between atoms: C_6  and  C_7 
REMARK   13  A    between atoms: C_7  and  C_8 
REMARK   14  A    between atoms: C_8  and  N_9 
REMARK       I    between atoms: N_9  and  C_10 
REMARK       I    between atoms: C_10  and  N_12 
REMARK   15  A    between atoms: C_41  and  C_42 
REMARK   16  A    between atoms: C_41  and  N_48 
REMARK       I    between atoms: N_48  and  C_50 
REMARK   17  A    between atoms: C_50  and  C_52 
REMARK   18  A    between atoms: C_52  and  N_53 
REMARK   19  A    between atoms: C_52  and  C_72 
REMARK       I    between atoms: N_53  and  C_55 
REMARK   20  A    between atoms: C_55  and  C_57 
REMARK   21  A    between atoms: C_57  and  N_58 
REMARK       I    between atoms: N_58  and  C_60 
REMARK   22  A    between atoms: C_60  and  C_62 
REMARK   23  A    between atoms: C_62  and  N_63 
REMARK   24  A    between atoms: C_62  and  C_67 
REMARK   25  A    between atoms: C_67  and  C_68 
REMARK   26  A    between atoms: C_68  and  C_69 
REMARK   27  A    between atoms: C_72  and  C_73 
REMARK   28  A    between atoms: C_42  and  C_43 
REMARK       I    between atoms: C_43  and  N_44 
ROOT
HETATM    1  C           0      -1.571 -18.948   9.483  0.00  0.00     0.241 C 
HETATM    2  O           0      -1.549 -19.593  10.537  0.00  0.00    -0.271 OA
HETATM    3  N           0      -0.597 -19.072   8.551  0.00  0.00    -0.346 N 
HETATM    4  H           0      -0.633 -18.500   7.715  0.00  0.00     0.163 HD
ENDROOT
BRANCH   3   5
HETATM    5  C           0       0.416 -20.118   8.678  0.00  0.00     0.176 C 
BRANCH   5   6
HETATM    6  C           0       0.461 -21.019   7.433  0.00  0.00     0.036 C 
BRANCH   6   7
HETATM    7  C           0      -0.900 -21.052   6.729  0.00  0.00     0.023 C 
BRANCH   7   8
HETATM    8  C           0      -1.414 -22.459   6.425  0.00  0.00     0.138 C 
BRANCH   8   9
HETATM    9  N           0      -2.329 -22.355   5.291  0.00  0.00    -0.227 N 
HETATM   10  C           0      -2.970 -23.353   4.691  0.00  0.00     0.665 C 
HETATM   11  N           0      -2.783 -24.630   5.052  0.00  0.00    -0.235 N 
HETATM   12  N           0      -3.831 -23.038   3.705  0.00  0.00    -0.235 N 
HETATM   13  H           0      -3.378 -25.360   4.689  0.00  0.00     0.174 HD
HETATM   14  H           0      -2.200 -24.863   5.840  0.00  0.00     0.174 HD
HETATM   15  H           0      -4.151 -23.748   3.065  0.00  0.00     0.174 HD
HETATM   16  H           0      -3.818 -22.063   3.400  0.00  0.00     0.174 HD
HETATM   17  H           0      -2.508 -21.428   4.869  0.00  0.00     0.177 HD
ENDBRANCH   8   9
ENDBRANCH   7   8
ENDBRANCH   6   7
ENDBRANCH   5   6
BRANCH   5  18
HETATM   18  C           0       1.813 -19.635   9.127  0.00  0.00     0.243 C 
HETATM   19  N           0       2.922 -20.366   8.835  0.00  0.00    -0.337 N 
HETATM   20  C           0       4.251 -19.823   9.165  0.00  0.00     0.179 C 
HETATM   21  C           0       2.999 -21.828   8.628  0.00  0.00     0.127 C 
HETATM   22  C           0       5.142 -21.073   9.408  0.00  0.00     0.037 C 
HETATM   23  C           0       4.145 -22.232   9.563  0.00  0.00     0.022 C 
HETATM   24  O           0       1.879 -18.539   9.691  0.00  0.00    -0.271 OA
BRANCH  20  25
HETATM   25  C           0       4.871 -18.924   8.081  0.00  0.00     0.241 C 
HETATM   26  N           0       4.215 -17.782   7.752  0.00  0.00    -0.344 N 
HETATM   27  H           0       3.349 -17.543   8.227  0.00  0.00     0.163 HD
HETATM   28  O           0       5.924 -19.278   7.545  0.00  0.00    -0.271 OA
BRANCH  26  29
HETATM   29  C           0       4.619 -16.964   6.618  0.00  0.00     0.200 C 
BRANCH  29  30
HETATM   30  C           0       5.860 -16.078   6.837  0.00  0.00     0.242 C 
HETATM   31  N           0       5.944 -15.383   7.980  0.00  0.00    -0.354 N 
HETATM   32  H           0       5.253 -15.455   8.723  0.00  0.00     0.162 HD
HETATM   33  O           0       6.727 -16.038   5.950  0.00  0.00    -0.271 OA
BRANCH  31  34
HETATM   34  C           0       7.080 -14.551   8.330  0.00  0.00     0.203 C 
BRANCH  34  35
HETATM   35  C           0       8.278 -15.434   8.785  0.00  0.00     0.307 C 
HETATM   36  O           0       8.074 -16.180   9.780  0.00  0.00    -0.186 OA
HETATM   37  O           0       9.323 -15.305   8.103  0.00  0.00    -0.186 OA
ENDBRANCH  34  35
ENDBRANCH  31  34
ENDBRANCH  29  30
BRANCH  29  38
HETATM   38  C           0       3.447 -16.090   6.120  0.00  0.00     0.199 C 
BRANCH  38  39
HETATM   39  O           0       3.377 -14.840   6.780  0.00  0.00    -0.398 OA
HETATM   40  H           0       3.024 -14.167   6.174  0.00  0.00     0.209 HD
ENDBRANCH  38  39
ENDBRANCH  29  38
ENDBRANCH  26  29
ENDBRANCH  20  25
ENDBRANCH   5  18
ENDBRANCH   3   5
BRANCH   1  41
HETATM   41  C           0      -2.743 -18.000   9.151  0.00  0.00     0.185 C 
BRANCH  41  42
HETATM   42  C           0      -2.933 -16.903  10.215  0.00  0.00     0.137 C 
BRANCH  42  43
HETATM   43  C           0      -3.803 -15.726   9.775  0.00  0.00     0.217 C 
HETATM   44  N           0      -3.146 -14.547   9.713  0.00  0.00    -0.370 N 
HETATM   45  H           0      -3.696 -13.720   9.529  0.00  0.00     0.159 HD
HETATM   46  H           0      -2.167 -14.442  10.005  0.00  0.00     0.159 HD
HETATM   47  O           0      -5.007 -15.856   9.539  0.00  0.00    -0.274 OA
ENDBRANCH  42  43
ENDBRANCH  41  42
BRANCH  41  48
HETATM   48  N           0      -4.009 -18.712   9.030  0.00  0.00    -0.346 N 
HETATM   49  H           0      -4.467 -19.020   9.878  0.00  0.00     0.163 HD
HETATM   50  C           0      -4.560 -19.066   7.851  0.00  0.00     0.241 C 
HETATM   51  O           0      -4.026 -18.841   6.758  0.00  0.00    -0.271 OA
BRANCH  50  52
HETATM   52  C           0      -5.935 -19.758   7.914  0.00  0.00     0.177 C 
BRANCH  52  53
HETATM   53  N           0      -7.039 -18.819   7.743  0.00  0.00    -0.346 N 
HETATM   54  H           0      -7.460 -18.722   6.827  0.00  0.00     0.163 HD
HETATM   55  C           0      -7.598 -18.166   8.797  0.00  0.00     0.236 C 
HETATM   56  O           0      -7.220 -18.319   9.956  0.00  0.00    -0.272 OA
BRANCH  55  57
HETATM   57  C           0      -8.768 -17.226   8.479  0.00  0.00     0.225 C 
BRANCH  57  58
HETATM   58  N           0      -8.479 -15.811   8.703  0.00  0.00    -0.351 N 
HETATM   59  H           0      -8.620 -15.453   9.637  0.00  0.00     0.163 HD
HETATM   60  C           0      -7.777 -15.120   7.774  0.00  0.00     0.248 C 
HETATM   61  O           0      -7.451 -15.633   6.698  0.00  0.00    -0.271 OA
BRANCH  60  62
HETATM   62  C           0      -7.389 -13.657   8.020  0.00  0.00     0.275 C 
BRANCH  62  63
HETATM   63  N           0      -8.297 -12.672   7.303  0.00  0.00    -0.066 N 
HETATM   64  H           0      -9.191 -13.091   7.024  0.00  0.00     0.275 HD
HETATM   65  H           0      -8.500 -11.826   7.845  0.00  0.00     0.275 HD
HETATM   66  H           0      -7.842 -12.353   6.442  0.00  0.00     0.275 HD
ENDBRANCH  62  63
BRANCH  62  67
HETATM   67  C           0      -7.290 -13.256   9.501  0.00  0.00     0.053 C 
BRANCH  67  68
HETATM   68  C           0      -6.748 -11.842   9.740  0.00  0.00     0.115 C 
BRANCH  68  69
HETATM   69  C           0      -5.575 -11.388   8.849  0.00  0.00     0.172 C 
HETATM   70  O           0      -4.427 -11.856   9.071  0.00  0.00    -0.648 OA
HETATM   71  O           0      -5.859 -10.537   7.945  0.00  0.00    -0.648 OA
ENDBRANCH  68  69
ENDBRANCH  67  68
ENDBRANCH  62  67
ENDBRANCH  60  62
ENDBRANCH  57  58
ENDBRANCH  55  57
ENDBRANCH  52  53
BRANCH  52  72
HETATM   72  C           0      -6.059 -20.880   6.858  0.00  0.00     0.038 C 
BRANCH  72  73
HETATM   73  C           0      -6.702 -22.203   7.316  0.00  0.00    -0.020 C 
HETATM   74  C           0      -6.354 -22.554   8.771  0.00  0.00     0.009 C 
HETATM   75  C           0      -8.224 -22.119   7.122  0.00  0.00     0.009 C 
ENDBRANCH  72  73
ENDBRANCH  52  72
ENDBRANCH  50  52
ENDBRANCH  41  48
ENDBRANCH   1  41
TORSDOF 28
ENDMDL
