MODEL 1
REMARK VINA RESULT:      -3.6      0.000      0.000
REMARK WARNING: 32 MAX_TORS EXCEEDED!!!
REMARK  38 active torsions:
REMARK  status: ('A' for Active; 'I' for Inactive)
REMARK    1  A    between atoms: N_1  and  CA_2 
REMARK    2  A    between atoms: CA_2  and  CB_5 
REMARK    3  A    between atoms: CA_2  and  C_3 
REMARK       I    between atoms: C_3  and  N_17 
REMARK    4  A    between atoms: CB_5  and  CG_6 
REMARK    5  A    between atoms: CZ_10  and  OH_11 
REMARK    6  A    between atoms: N_17  and  CA_18 
REMARK    7  A    between atoms: CA_18  and  CB_21 
REMARK    8  A    between atoms: CA_18  and  C_19 
REMARK       I    between atoms: C_19  and  N_26 
REMARK    9  A    between atoms: CB_21  and  CG_22 
REMARK   10  A    between atoms: CA_27  and  C_28 
REMARK       I    between atoms: C_28  and  N_33 
REMARK   11  A    between atoms: N_33  and  CA_34 
REMARK   12  A    between atoms: CA_34  and  C_35 
REMARK   13  A    between atoms: CA_34  and  CB_37 
REMARK       I    between atoms: C_35  and  N_43 
REMARK   14  A    between atoms: CB_37  and  CG_38 
REMARK   15  A    between atoms: CG_38  and  CD_39 
REMARK   16  A    between atoms: N_43  and  CA_44 
REMARK   17  A    between atoms: CA_44  and  CB_47 
REMARK   18  A    between atoms: CA_44  and  C_45 
REMARK       I    between atoms: C_45  and  N_57 
REMARK   19  A    between atoms: CB_47  and  CG_48 
REMARK   20  A    between atoms: CZ_52  and  OH_53 
REMARK   21  A    between atoms: N_57  and  CA_58 
REMARK   22  A    between atoms: CA_58  and  CB_61 
REMARK   23  A    between atoms: CA_58  and  C_59 
REMARK       I    between atoms: C_59  and  N_74 
REMARK   24  A    between atoms: CB_61  and  CG_62 
REMARK   25  A    between atoms: CG_62  and  CD_63 
REMARK   26  A    between atoms: CD_63  and  NE_64 
REMARK       I    between atoms: NE_64  and  CZ_65 
REMARK       I    between atoms: CZ_65  and  NH2_66 
REMARK   27  A    between atoms: N_74  and  CA_75 
REMARK   28  A    between atoms: CA_75  and  CB_78 
REMARK   29  A    between atoms: CA_75  and  C_76 
REMARK       I    between atoms: C_76  and  N_85 
REMARK   30  A    between atoms: CB_78  and  CG_79 
REMARK       I    between atoms: CG_79  and  ND2_80 
REMARK   31  A    between atoms: N_85  and  CA_86 
REMARK   32  A    between atoms: CA_86  and  CB_89 
REMARK   33  A    between atoms: CA_86  and  C_87 
REMARK       I    between atoms: C_87  and  N_97 
REMARK   34  A    between atoms: CB_89  and  CG_90 
REMARK   35  A    between atoms: N_97  and  CA_98 
REMARK   36  A    between atoms: CA_98  and  C_99 
REMARK   37  A    between atoms: CA_98  and  CB_102 
REMARK   38  A    between atoms: CB_102  and  CG_103 
ROOT
ATOM      1  C   TYR A   5      -8.922 -15.051   4.962  1.00  0.00     0.241 C 
ATOM      2  O   TYR A   5      -8.589 -15.711   3.981  1.00  0.00    -0.271 OA
ATOM      3  N   ARG A   6      -9.105 -15.627   6.163  1.00  0.00    -0.346 N 
ATOM      4  H   ARG A   6      -9.363 -15.021   6.938  1.00  0.00     0.163 HD
ENDROOT
BRANCH   3   5
ATOM      5  CA  ARG A   6      -8.891 -17.067   6.428  1.00  0.00     0.176 C 
BRANCH   5   6
ATOM      6  CB  ARG A   6      -8.753 -17.279   7.949  1.00  0.00     0.036 C 
BRANCH   6   7
ATOM      7  CG  ARG A   6      -7.323 -17.010   8.473  1.00  0.00     0.023 C 
BRANCH   7   8
ATOM      8  CD  ARG A   6      -6.350 -18.174   8.223  1.00  0.00     0.138 C 
BRANCH   8   9
ATOM      9  NE  ARG A   6      -6.932 -19.202   7.332  1.00  0.00    -0.227 N 
ATOM     10  HE  ARG A   6      -7.929 -19.166   7.219  1.00  0.00     0.177 HD
ATOM     11  CZ  ARG A   6      -6.289 -20.087   6.587  1.00  0.00     0.665 C 
ATOM     12  NH2 ARG A   6      -6.959 -20.833   5.764  1.00  0.00    -0.235 N 
ATOM     13  NH1 ARG A   6      -4.998 -20.256   6.614  1.00  0.00    -0.235 N 
ATOM     14 1HH2 ARG A   6      -7.883 -20.532   5.517  1.00  0.00     0.174 HD
ATOM     15 2HH2 ARG A   6      -6.444 -21.245   5.004  1.00  0.00     0.174 HD
ATOM     16 1HH1 ARG A   6      -4.431 -19.560   7.066  1.00  0.00     0.174 HD
ATOM     17 2HH1 ARG A   6      -4.564 -20.905   5.984  1.00  0.00     0.174 HD
ENDBRANCH   8   9
ENDBRANCH   7   8
ENDBRANCH   6   7
ENDBRANCH   5   6
BRANCH   5  18
ATOM     18  C   ARG A   6      -9.984 -17.983   5.831  1.00  0.00     0.241 C 
ATOM     19  N   ASN A   7      -9.762 -18.607   4.666  1.00  0.00    -0.346 N 
ATOM     20  H   ASN A   7      -8.839 -18.551   4.255  1.00  0.00     0.163 HD
ATOM     21  O   ARG A   6     -11.080 -18.020   6.375  1.00  0.00    -0.271 OA
BRANCH  19  22
ATOM     22  CA  ASN A   7     -10.728 -19.569   4.098  1.00  0.00     0.185 C 
BRANCH  22  23
ATOM     23  CB  ASN A   7     -11.427 -18.984   2.856  1.00  0.00     0.137 C 
BRANCH  23  24
ATOM     24  CG  ASN A   7     -11.838 -17.526   2.890  1.00  0.00     0.217 C 
ATOM     25  ND2 ASN A   7     -12.941 -17.274   3.563  1.00  0.00    -0.370 N 
ATOM     26 2HD2 ASN A   7     -13.554 -18.043   3.827  1.00  0.00     0.159 HD
ATOM     27 1HD2 ASN A   7     -13.212 -16.321   3.673  1.00  0.00     0.159 HD
ATOM     28  OD1 ASN A   7     -11.100 -16.602   2.560  1.00  0.00    -0.274 OA
ENDBRANCH  23  24
ENDBRANCH  22  23
BRANCH  22  29
ATOM     29  C   ASN A   7     -10.092 -20.921   3.706  1.00  0.00     0.241 C 
ATOM     30  N   PHE A   8     -10.505 -22.019   4.356  1.00  0.00    -0.346 N 
ATOM     31  H   PHE A   8     -11.172 -21.904   5.113  1.00  0.00     0.163 HD
ATOM     32  O   ASN A   7      -9.145 -20.934   2.920  1.00  0.00    -0.271 OA
BRANCH  30  33
ATOM     33  CA  PHE A   8     -10.072 -23.387   4.031  1.00  0.00     0.180 C 
BRANCH  33  34
ATOM     34  CB  PHE A   8      -9.308 -23.933   5.256  1.00  0.00     0.073 C 
BRANCH  34  35
ATOM     35  CG  PHE A   8      -7.927 -24.485   4.946  1.00  0.00    -0.056 A 
ATOM     36  CD1 PHE A   8      -7.721 -25.274   3.799  1.00  0.00     0.007 A 
ATOM     37  CE1 PHE A   8      -6.476 -25.894   3.585  1.00  0.00     0.001 A 
ATOM     38  CZ  PHE A   8      -5.436 -25.723   4.515  1.00  0.00     0.000 A 
ATOM     39  CE2 PHE A   8      -5.630 -24.908   5.644  1.00  0.00     0.001 A 
ATOM     40  CD2 PHE A   8      -6.872 -24.284   5.856  1.00  0.00     0.007 A 
ENDBRANCH  34  35
ENDBRANCH  33  34
BRANCH  33  41
ATOM     41  C   PHE A   8     -11.241 -24.308   3.603  1.00  0.00     0.241 C 
ATOM     42  N   TRP A   9     -11.510 -25.358   4.396  1.00  0.00    -0.344 N 
ATOM     43  H   TRP A   9     -10.943 -25.466   5.223  1.00  0.00     0.163 HD
ATOM     44  O   PHE A   8     -11.839 -24.081   2.549  1.00  0.00    -0.271 OA
BRANCH  42  45
ATOM     45  CA  TRP A   9     -12.513 -26.411   4.162  1.00  0.00     0.190 C 
BRANCH  45  46
ATOM     46  C   TRP A   9     -13.982 -25.940   4.228  1.00  0.00     0.197 C 
ATOM     47  OXT TRP A   9     -14.618 -25.902   3.143  1.00  0.00    -0.646 OA
ATOM     48  O   TRP A   9     -14.308 -25.288   5.243  1.00  0.00    -0.646 OA
ENDBRANCH  45  46
BRANCH  45  49
ATOM     49  CB  TRP A   9     -12.245 -27.532   5.178  1.00  0.00     0.077 C 
BRANCH  49  50
ATOM     50  CG  TRP A   9     -10.892 -28.155   5.055  1.00  0.00    -0.028 A 
ATOM     51  CD1 TRP A   9     -10.458 -28.795   3.950  1.00  0.00     0.096 A 
ATOM     52  NE1 TRP A   9      -9.123 -29.110   4.082  1.00  0.00    -0.365 N 
ATOM     53  HE1 TRP A   9      -8.566 -29.408   3.301  1.00  0.00     0.165 HD
ATOM     54  CE2 TRP A   9      -8.612 -28.625   5.266  1.00  0.00     0.042 A 
ATOM     55  CD2 TRP A   9      -9.722 -28.007   5.915  1.00  0.00    -0.002 A 
ATOM     56  CZ2 TRP A   9      -7.316 -28.604   5.799  1.00  0.00     0.030 A 
ATOM     57  CE3 TRP A   9      -9.461 -27.349   7.138  1.00  0.00     0.014 A 
ATOM     58  CZ3 TRP A   9      -8.158 -27.305   7.675  1.00  0.00     0.001 A 
ATOM     59  CH2 TRP A   9      -7.088 -27.932   7.010  1.00  0.00     0.002 A 
ENDBRANCH  49  50
ENDBRANCH  45  49
ENDBRANCH  42  45
ENDBRANCH  33  41
ENDBRANCH  30  33
ENDBRANCH  22  29
ENDBRANCH  19  22
ENDBRANCH   5  18
ENDBRANCH   3   5
BRANCH   1  60
ATOM     60  CA  TYR A   5      -9.414 -13.608   4.750  1.00  0.00     0.180 C 
BRANCH  60  61
ATOM     61  N   TYR A   5     -10.750 -13.561   4.144  1.00  0.00    -0.346 N 
ATOM     62  H   TYR A   5     -10.874 -13.030   3.294  1.00  0.00     0.163 HD
ATOM     63  C   GLU A   4     -11.829 -14.105   4.730  1.00  0.00     0.241 C 
ATOM     64  O   GLU A   4     -11.758 -14.595   5.853  1.00  0.00    -0.271 OA
BRANCH  63  65
ATOM     65  CA  GLU A   4     -13.201 -13.806   4.108  1.00  0.00     0.177 C 
BRANCH  65  66
ATOM     66  N   GLU A   4     -14.292 -14.357   4.931  1.00  0.00    -0.346 N 
ATOM     67  H   GLU A   4     -14.119 -14.429   5.926  1.00  0.00     0.163 HD
ATOM     68  C   PRO A   3     -15.350 -15.022   4.457  1.00  0.00     0.241 C 
ATOM     69  O   PRO A   3     -15.548 -15.192   3.266  1.00  0.00    -0.271 OA
BRANCH  68  70
ATOM     70  CA  PRO A   3     -16.372 -15.575   5.460  1.00  0.00     0.179 C 
ATOM     71  N   PRO A   3     -16.034 -16.863   6.103  1.00  0.00    -0.337 N 
ATOM     72  CD  PRO A   3     -16.146 -16.711   7.551  1.00  0.00     0.127 C 
ATOM     73  C   ASP A   2     -15.905 -18.025   5.408  1.00  0.00     0.243 C 
ATOM     74  CG  PRO A   3     -17.014 -15.472   7.765  1.00  0.00     0.022 C 
ATOM     75  CB  PRO A   3     -16.587 -14.576   6.607  1.00  0.00     0.037 C 
ATOM     76  O   ASP A   2     -15.860 -17.963   4.176  1.00  0.00    -0.271 OA
BRANCH  73  77
ATOM     77  CA  ASP A   2     -15.346 -19.332   6.071  1.00  0.00     0.186 C 
BRANCH  77  78
ATOM     78  CB  ASP A   2     -13.946 -19.754   5.596  1.00  0.00     0.147 C 
BRANCH  78  79
ATOM     79  CG  ASP A   2     -13.422 -20.934   6.398  1.00  0.00     0.175 C 
ATOM     80  OD2 ASP A   2     -13.451 -20.774   7.641  1.00  0.00    -0.648 OA
ATOM     81  OD1 ASP A   2     -13.340 -22.010   5.794  1.00  0.00    -0.648 OA
ENDBRANCH  78  79
ENDBRANCH  77  78
BRANCH  77  82
ATOM     82  N   ASP A   2     -16.209 -20.540   6.032  1.00  0.00    -0.345 N 
ATOM     83  H   ASP A   2     -15.876 -21.254   5.402  1.00  0.00     0.163 HD
ATOM     84  C   TYR A   1     -17.086 -20.863   6.997  1.00  0.00     0.249 C 
ATOM     85  O   TYR A   1     -17.422 -20.077   7.851  1.00  0.00    -0.271 OA
BRANCH  84  86
ATOM     86  CA  TYR A   1     -17.969 -22.087   6.869  1.00  0.00     0.278 C 
BRANCH  86  87
ATOM     87  N   TYR A   1     -18.909 -22.194   7.998  1.00  0.00    -0.066 N 
ATOM     88  H2  TYR A   1     -19.599 -21.459   7.949  1.00  0.00     0.275 HD
ATOM     89  H1  TYR A   1     -18.394 -22.116   8.864  1.00  0.00     0.275 HD
ATOM     90  H3  TYR A   1     -19.374 -23.094   7.963  1.00  0.00     0.275 HD
ENDBRANCH  86  87
BRANCH  86  91
ATOM     91  CB  TYR A   1     -18.641 -22.260   5.508  1.00  0.00     0.081 C 
BRANCH  91  92
ATOM     92  CG  TYR A   1     -18.425 -23.650   4.936  1.00  0.00    -0.056 A 
ATOM     93  CD2 TYR A   1     -18.805 -23.915   3.600  1.00  0.00     0.010 A 
ATOM     94  CE2 TYR A   1     -18.638 -25.204   3.064  1.00  0.00     0.037 A 
ATOM     95  CZ  TYR A   1     -18.080 -26.232   3.857  1.00  0.00     0.065 A 
ATOM     96  CE1 TYR A   1     -17.668 -25.960   5.175  1.00  0.00     0.037 A 
ATOM     97  CD1 TYR A   1     -17.836 -24.668   5.722  1.00  0.00     0.010 A 
BRANCH  95  98
ATOM     98  OH  TYR A   1     -17.932 -27.480   3.354  1.00  0.00    -0.361 OA
ATOM     99  HH  TYR A   1     -17.564 -28.082   4.002  1.00  0.00     0.217 HD
ENDBRANCH  95  98
ENDBRANCH  91  92
ENDBRANCH  86  91
ENDBRANCH  84  86
ENDBRANCH  77  82
ENDBRANCH  73  77
ENDBRANCH  68  70
ENDBRANCH  65  66
BRANCH  65 100
ATOM    100  CB  GLU A   4     -13.414 -12.285   3.941  1.00  0.00     0.045 C 
BRANCH 100 101
ATOM    101  CG  GLU A   4     -14.363 -11.633   4.960  1.00  0.00     0.116 C 
BRANCH 101 102
ATOM    102  CD  GLU A   4     -13.590 -10.887   6.060  1.00  0.00     0.172 C 
ATOM    103  OE2 GLU A   4     -13.514  -9.644   5.931  1.00  0.00    -0.648 OA
ATOM    104  OE1 GLU A   4     -12.820 -11.572   6.780  1.00  0.00    -0.648 OA
ENDBRANCH 101 102
ENDBRANCH 100 101
ENDBRANCH  65 100
ENDBRANCH  63  65
ENDBRANCH  60  61
BRANCH  60 105
ATOM    105  CB  TYR A   5      -9.386 -12.797   6.060  1.00  0.00     0.073 C 
BRANCH 105 106
ATOM    106  CG  TYR A   5      -8.806 -11.390   5.972  1.00  0.00    -0.056 A 
ATOM    107  CD1 TYR A   5      -7.422 -11.192   5.748  1.00  0.00     0.010 A 
ATOM    108  CE1 TYR A   5      -6.925  -9.887   5.510  1.00  0.00     0.037 A 
ATOM    109  CZ  TYR A   5      -7.804  -8.789   5.509  1.00  0.00     0.065 A 
ATOM    110  CE2 TYR A   5      -9.179  -8.981   5.763  1.00  0.00     0.037 A 
ATOM    111  CD2 TYR A   5      -9.679 -10.279   5.985  1.00  0.00     0.010 A 
BRANCH 109 112
ATOM    112  OH  TYR A   5      -7.336  -7.546   5.256  1.00  0.00    -0.361 OA
ATOM    113  HH  TYR A   5      -6.418  -7.601   4.981  1.00  0.00     0.217 HD
ENDBRANCH 109 112
ENDBRANCH 105 106
ENDBRANCH  60 105
ENDBRANCH   1  60
TORSDOF 38
ENDMDL
MODEL 2
REMARK VINA RESULT:      -3.5      6.593     13.225
REMARK WARNING: 32 MAX_TORS EXCEEDED!!!
REMARK  38 active torsions:
REMARK  status: ('A' for Active; 'I' for Inactive)
REMARK    1  A    between atoms: N_1  and  CA_2 
REMARK    2  A    between atoms: CA_2  and  CB_5 
REMARK    3  A    between atoms: CA_2  and  C_3 
REMARK       I    between atoms: C_3  and  N_17 
REMARK    4  A    between atoms: CB_5  and  CG_6 
REMARK    5  A    between atoms: CZ_10  and  OH_11 
REMARK    6  A    between atoms: N_17  and  CA_18 
REMARK    7  A    between atoms: CA_18  and  CB_21 
REMARK    8  A    between atoms: CA_18  and  C_19 
REMARK       I    between atoms: C_19  and  N_26 
REMARK    9  A    between atoms: CB_21  and  CG_22 
REMARK   10  A    between atoms: CA_27  and  C_28 
REMARK       I    between atoms: C_28  and  N_33 
REMARK   11  A    between atoms: N_33  and  CA_34 
REMARK   12  A    between atoms: CA_34  and  C_35 
REMARK   13  A    between atoms: CA_34  and  CB_37 
REMARK       I    between atoms: C_35  and  N_43 
REMARK   14  A    between atoms: CB_37  and  CG_38 
REMARK   15  A    between atoms: CG_38  and  CD_39 
REMARK   16  A    between atoms: N_43  and  CA_44 
REMARK   17  A    between atoms: CA_44  and  CB_47 
REMARK   18  A    between atoms: CA_44  and  C_45 
REMARK       I    between atoms: C_45  and  N_57 
REMARK   19  A    between atoms: CB_47  and  CG_48 
REMARK   20  A    between atoms: CZ_52  and  OH_53 
REMARK   21  A    between atoms: N_57  and  CA_58 
REMARK   22  A    between atoms: CA_58  and  CB_61 
REMARK   23  A    between atoms: CA_58  and  C_59 
REMARK       I    between atoms: C_59  and  N_74 
REMARK   24  A    between atoms: CB_61  and  CG_62 
REMARK   25  A    between atoms: CG_62  and  CD_63 
REMARK   26  A    between atoms: CD_63  and  NE_64 
REMARK       I    between atoms: NE_64  and  CZ_65 
REMARK       I    between atoms: CZ_65  and  NH2_66 
REMARK   27  A    between atoms: N_74  and  CA_75 
REMARK   28  A    between atoms: CA_75  and  CB_78 
REMARK   29  A    between atoms: CA_75  and  C_76 
REMARK       I    between atoms: C_76  and  N_85 
REMARK   30  A    between atoms: CB_78  and  CG_79 
REMARK       I    between atoms: CG_79  and  ND2_80 
REMARK   31  A    between atoms: N_85  and  CA_86 
REMARK   32  A    between atoms: CA_86  and  CB_89 
REMARK   33  A    between atoms: CA_86  and  C_87 
REMARK       I    between atoms: C_87  and  N_97 
REMARK   34  A    between atoms: CB_89  and  CG_90 
REMARK   35  A    between atoms: N_97  and  CA_98 
REMARK   36  A    between atoms: CA_98  and  C_99 
REMARK   37  A    between atoms: CA_98  and  CB_102 
REMARK   38  A    between atoms: CB_102  and  CG_103 
ROOT
ATOM      1  C   TYR A   5      -0.064 -22.610   7.809  1.00  0.00     0.241 C 
ATOM      2  O   TYR A   5      -0.459 -22.755   8.963  1.00  0.00    -0.271 OA
ATOM      3  N   ARG A   6      -0.901 -22.232   6.826  1.00  0.00    -0.346 N 
ATOM      4  H   ARG A   6      -0.508 -22.113   5.896  1.00  0.00     0.163 HD
ENDROOT
BRANCH   3   5
ATOM      5  CA  ARG A   6      -2.333 -21.923   7.037  1.00  0.00     0.176 C 
BRANCH   5   6
ATOM      6  CB  ARG A   6      -2.461 -20.469   7.536  1.00  0.00     0.036 C 
BRANCH   6   7
ATOM      7  CG  ARG A   6      -3.152 -20.358   8.915  1.00  0.00     0.023 C 
BRANCH   7   8
ATOM      8  CD  ARG A   6      -4.293 -21.369   9.112  1.00  0.00     0.138 C 
BRANCH   8   9
ATOM      9  NE  ARG A   6      -5.480 -21.032   8.295  1.00  0.00    -0.227 N 
ATOM     10  HE  ARG A   6      -5.527 -20.084   7.966  1.00  0.00     0.177 HD
ATOM     11  CZ  ARG A   6      -6.423 -21.851   7.857  1.00  0.00     0.665 C 
ATOM     12  NH2 ARG A   6      -7.326 -21.404   7.042  1.00  0.00    -0.235 N 
ATOM     13  NH1 ARG A   6      -6.499 -23.109   8.187  1.00  0.00    -0.235 N 
ATOM     14 1HH2 ARG A   6      -7.128 -20.550   6.557  1.00  0.00     0.174 HD
ATOM     15 2HH2 ARG A   6      -7.814 -22.088   6.486  1.00  0.00     0.174 HD
ATOM     16 1HH1 ARG A   6      -5.708 -23.540   8.632  1.00  0.00     0.174 HD
ATOM     17 2HH1 ARG A   6      -7.206 -23.692   7.778  1.00  0.00     0.174 HD
ENDBRANCH   8   9
ENDBRANCH   7   8
ENDBRANCH   6   7
ENDBRANCH   5   6
BRANCH   5  18
ATOM     18  C   ARG A   6      -3.217 -22.168   5.793  1.00  0.00     0.241 C 
ATOM     19  N   ASN A   7      -3.030 -23.271   5.054  1.00  0.00    -0.346 N 
ATOM     20  H   ASN A   7      -2.385 -23.974   5.389  1.00  0.00     0.163 HD
ATOM     21  O   ARG A   6      -3.988 -21.287   5.438  1.00  0.00    -0.271 OA
BRANCH  19  22
ATOM     22  CA  ASN A   7      -3.907 -23.606   3.915  1.00  0.00     0.185 C 
BRANCH  22  23
ATOM     23  CB  ASN A   7      -3.082 -23.884   2.644  1.00  0.00     0.137 C 
BRANCH  23  24
ATOM     24  CG  ASN A   7      -1.745 -24.579   2.799  1.00  0.00     0.217 C 
ATOM     25  ND2 ASN A   7      -1.756 -25.870   2.548  1.00  0.00    -0.370 N 
ATOM     26 2HD2 ASN A   7      -2.645 -26.361   2.481  1.00  0.00     0.159 HD
ATOM     27 1HD2 ASN A   7      -0.885 -26.356   2.568  1.00  0.00     0.159 HD
ATOM     28  OD1 ASN A   7      -0.675 -23.984   2.891  1.00  0.00    -0.274 OA
ENDBRANCH  23  24
ENDBRANCH  22  23
BRANCH  22  29
ATOM     29  C   ASN A   7      -4.819 -24.825   4.178  1.00  0.00     0.241 C 
ATOM     30  N   PHE A   8      -5.845 -24.667   5.028  1.00  0.00    -0.346 N 
ATOM     31  H   PHE A   8      -5.941 -23.774   5.501  1.00  0.00     0.163 HD
ATOM     32  O   ASN A   7      -4.505 -25.921   3.717  1.00  0.00    -0.271 OA
BRANCH  30  33
ATOM     33  CA  PHE A   8      -6.858 -25.697   5.305  1.00  0.00     0.180 C 
BRANCH  33  34
ATOM     34  CB  PHE A   8      -6.388 -26.485   6.546  1.00  0.00     0.073 C 
BRANCH  34  35
ATOM     35  CG  PHE A   8      -7.024 -27.855   6.705  1.00  0.00    -0.056 A 
ATOM     36  CD1 PHE A   8      -6.740 -28.878   5.780  1.00  0.00     0.007 A 
ATOM     37  CE1 PHE A   8      -7.431 -30.102   5.851  1.00  0.00     0.001 A 
ATOM     38  CZ  PHE A   8      -8.402 -30.305   6.847  1.00  0.00     0.000 A 
ATOM     39  CE2 PHE A   8      -8.662 -29.296   7.791  1.00  0.00     0.001 A 
ATOM     40  CD2 PHE A   8      -7.969 -28.076   7.724  1.00  0.00     0.007 A 
ENDBRANCH  34  35
ENDBRANCH  33  34
BRANCH  33  41
ATOM     41  C   PHE A   8      -8.284 -25.116   5.476  1.00  0.00     0.241 C 
ATOM     42  N   TRP A   9      -9.256 -25.661   4.728  1.00  0.00    -0.344 N 
ATOM     43  H   TRP A   9      -8.996 -26.421   4.118  1.00  0.00     0.163 HD
ATOM     44  O   PHE A   8      -8.464 -24.163   6.237  1.00  0.00    -0.271 OA
BRANCH  42  45
ATOM     45  CA  TRP A   9     -10.664 -25.234   4.656  1.00  0.00     0.190 C 
BRANCH  45  46
ATOM     46  C   TRP A   9     -11.683 -26.374   4.441  1.00  0.00     0.197 C 
ATOM     47  OXT TRP A   9     -12.707 -26.369   5.174  1.00  0.00    -0.646 OA
ATOM     48  O   TRP A   9     -11.257 -27.393   3.857  1.00  0.00    -0.646 OA
ENDBRANCH  45  46
BRANCH  45  49
ATOM     49  CB  TRP A   9     -10.768 -24.183   3.540  1.00  0.00     0.077 C 
BRANCH  49  50
ATOM     50  CG  TRP A   9     -10.593 -22.775   4.012  1.00  0.00    -0.028 A 
ATOM     51  CD1 TRP A   9      -9.606 -21.960   3.590  1.00  0.00     0.096 A 
ATOM     52  NE1 TRP A   9      -9.808 -20.685   4.075  1.00  0.00    -0.365 N 
ATOM     53  HE1 TRP A   9      -9.302 -19.894   3.719  1.00  0.00     0.165 HD
ATOM     54  CE2 TRP A   9     -10.984 -20.605   4.787  1.00  0.00     0.042 A 
ATOM     55  CD2 TRP A   9     -11.512 -21.929   4.767  1.00  0.00    -0.002 A 
ATOM     56  CZ2 TRP A   9     -11.659 -19.529   5.379  1.00  0.00     0.030 A 
ATOM     57  CE3 TRP A   9     -12.776 -22.122   5.371  1.00  0.00     0.014 A 
ATOM     58  CZ3 TRP A   9     -13.473 -21.045   5.953  1.00  0.00     0.001 A 
ATOM     59  CH2 TRP A   9     -12.918 -19.752   5.961  1.00  0.00     0.002 A 
ENDBRANCH  49  50
ENDBRANCH  45  49
ENDBRANCH  42  45
ENDBRANCH  33  41
ENDBRANCH  30  33
ENDBRANCH  22  29
ENDBRANCH  19  22
ENDBRANCH   5  18
ENDBRANCH   3   5
BRANCH   1  60
ATOM     60  CA  TYR A   5       1.329 -23.144   7.430  1.00  0.00     0.180 C 
BRANCH  60  61
ATOM     61  N   TYR A   5       1.253 -24.380   6.642  1.00  0.00    -0.346 N 
ATOM     62  H   TYR A   5       1.073 -24.307   5.651  1.00  0.00     0.163 HD
ATOM     63  C   GLU A   4       1.306 -25.599   7.202  1.00  0.00     0.241 C 
ATOM     64  O   GLU A   4       1.333 -25.733   8.422  1.00  0.00    -0.271 OA
BRANCH  63  65
ATOM     65  CA  GLU A   4       1.001 -26.807   6.304  1.00  0.00     0.177 C 
BRANCH  65  66
ATOM     66  N   GLU A   4      -0.345 -27.344   6.570  1.00  0.00    -0.346 N 
ATOM     67  H   GLU A   4      -0.434 -28.352   6.601  1.00  0.00     0.163 HD
ATOM     68  C   PRO A   3      -1.481 -26.644   6.489  1.00  0.00     0.241 C 
ATOM     69  O   PRO A   3      -1.508 -25.452   6.235  1.00  0.00    -0.271 OA
BRANCH  68  70
ATOM     70  CA  PRO A   3      -2.806 -27.373   6.751  1.00  0.00     0.179 C 
ATOM     71  N   PRO A   3      -2.877 -28.786   6.320  1.00  0.00    -0.337 N 
ATOM     72  CD  PRO A   3      -3.325 -29.600   7.447  1.00  0.00     0.127 C 
ATOM     73  C   ASP A   2      -2.784 -29.167   5.018  1.00  0.00     0.243 C 
ATOM     74  CG  PRO A   3      -3.984 -28.624   8.419  1.00  0.00     0.022 C 
ATOM     75  CB  PRO A   3      -3.125 -27.375   8.254  1.00  0.00     0.037 C 
ATOM     76  O   ASP A   2      -2.417 -28.328   4.192  1.00  0.00    -0.271 OA
BRANCH  73  77
ATOM     77  CA  ASP A   2      -2.654 -30.674   4.601  1.00  0.00     0.186 C 
BRANCH  77  78
ATOM     78  CB  ASP A   2      -1.873 -30.923   3.300  1.00  0.00     0.147 C 
BRANCH  78  79
ATOM     79  CG  ASP A   2      -1.101 -32.230   3.360  1.00  0.00     0.175 C 
ATOM     80  OD2 ASP A   2      -1.681 -33.205   2.827  1.00  0.00    -0.648 OA
ATOM     81  OD1 ASP A   2       0.107 -32.138   3.612  1.00  0.00    -0.648 OA
ENDBRANCH  78  79
ENDBRANCH  77  78
BRANCH  77  82
ATOM     82  N   ASP A   2      -3.904 -31.472   4.527  1.00  0.00    -0.345 N 
ATOM     83  H   ASP A   2      -4.445 -31.298   3.694  1.00  0.00     0.163 HD
ATOM     84  C   TYR A   1      -4.116 -32.596   5.233  1.00  0.00     0.249 C 
ATOM     85  O   TYR A   1      -3.415 -32.912   6.165  1.00  0.00    -0.271 OA
BRANCH  84  86
ATOM     86  CA  TYR A   1      -5.435 -33.334   5.143  1.00  0.00     0.278 C 
BRANCH  86  87
ATOM     87  N   TYR A   1      -6.135 -33.346   6.439  1.00  0.00    -0.066 N 
ATOM     88  H2  TYR A   1      -5.518 -33.033   7.173  1.00  0.00     0.275 HD
ATOM     89  H1  TYR A   1      -6.445 -34.287   6.637  1.00  0.00     0.275 HD
ATOM     90  H3  TYR A   1      -6.939 -32.731   6.391  1.00  0.00     0.275 HD
ENDBRANCH  86  87
BRANCH  86  91
ATOM     91  CB  TYR A   1      -6.333 -32.917   3.979  1.00  0.00     0.081 C 
BRANCH  91  92
ATOM     92  CG  TYR A   1      -7.613 -33.731   3.923  1.00  0.00    -0.056 A 
ATOM     93  CD2 TYR A   1      -7.539 -35.119   3.666  1.00  0.00     0.010 A 
ATOM     94  CE2 TYR A   1      -8.718 -35.882   3.583  1.00  0.00     0.037 A 
ATOM     95  CZ  TYR A   1      -9.974 -35.264   3.768  1.00  0.00     0.065 A 
ATOM     96  CE1 TYR A   1     -10.047 -33.888   4.061  1.00  0.00     0.037 A 
ATOM     97  CD1 TYR A   1      -8.868 -33.114   4.142  1.00  0.00     0.010 A 
BRANCH  95  98
ATOM     98  OH  TYR A   1     -11.114 -35.988   3.673  1.00  0.00    -0.361 OA
ATOM     99  HH  TYR A   1     -11.638 -35.932   4.473  1.00  0.00     0.217 HD
ENDBRANCH  95  98
ENDBRANCH  91  92
ENDBRANCH  86  91
ENDBRANCH  84  86
ENDBRANCH  77  82
ENDBRANCH  73  77
ENDBRANCH  68  70
ENDBRANCH  65  66
BRANCH  65 100
ATOM    100  CB  GLU A   4       1.107 -26.428   4.810  1.00  0.00     0.045 C 
BRANCH 100 101
ATOM    101  CG  GLU A   4       0.922 -27.587   3.818  1.00  0.00     0.116 C 
BRANCH 101 102
ATOM    102  CD  GLU A   4       1.829 -28.781   4.162  1.00  0.00     0.172 C 
ATOM    103  OE2 GLU A   4       2.687 -29.083   3.303  1.00  0.00    -0.648 OA
ATOM    104  OE1 GLU A   4       1.430 -29.556   5.067  1.00  0.00    -0.648 OA
ENDBRANCH 101 102
ENDBRANCH 100 101
ENDBRANCH  65 100
ENDBRANCH  63  65
ENDBRANCH  60  61
BRANCH  60 105
ATOM    105  CB  TYR A   5       2.165 -22.082   6.691  1.00  0.00     0.073 C 
BRANCH 105 106
ATOM    106  CG  TYR A   5       2.925 -21.091   7.567  1.00  0.00    -0.056 A 
ATOM    107  CD1 TYR A   5       4.253 -21.361   7.977  1.00  0.00     0.010 A 
ATOM    108  CE1 TYR A   5       4.998 -20.364   8.654  1.00  0.00     0.037 A 
ATOM    109  CZ  TYR A   5       4.414 -19.114   8.928  1.00  0.00     0.065 A 
ATOM    110  CE2 TYR A   5       3.081 -18.855   8.546  1.00  0.00     0.037 A 
ATOM    111  CD2 TYR A   5       2.341 -19.838   7.860  1.00  0.00     0.010 A 
BRANCH 109 112
ATOM    112  OH  TYR A   5       5.134 -18.151   9.550  1.00  0.00    -0.361 OA
ATOM    113  HH  TYR A   5       5.575 -18.527  10.314  1.00  0.00     0.217 HD
ENDBRANCH 109 112
ENDBRANCH 105 106
ENDBRANCH  60 105
ENDBRANCH   1  60
TORSDOF 38
ENDMDL
MODEL 3
REMARK VINA RESULT:      -3.3      6.351     13.259
REMARK WARNING: 32 MAX_TORS EXCEEDED!!!
REMARK  38 active torsions:
REMARK  status: ('A' for Active; 'I' for Inactive)
REMARK    1  A    between atoms: N_1  and  CA_2 
REMARK    2  A    between atoms: CA_2  and  CB_5 
REMARK    3  A    between atoms: CA_2  and  C_3 
REMARK       I    between atoms: C_3  and  N_17 
REMARK    4  A    between atoms: CB_5  and  CG_6 
REMARK    5  A    between atoms: CZ_10  and  OH_11 
REMARK    6  A    between atoms: N_17  and  CA_18 
REMARK    7  A    between atoms: CA_18  and  CB_21 
REMARK    8  A    between atoms: CA_18  and  C_19 
REMARK       I    between atoms: C_19  and  N_26 
REMARK    9  A    between atoms: CB_21  and  CG_22 
REMARK   10  A    between atoms: CA_27  and  C_28 
REMARK       I    between atoms: C_28  and  N_33 
REMARK   11  A    between atoms: N_33  and  CA_34 
REMARK   12  A    between atoms: CA_34  and  C_35 
REMARK   13  A    between atoms: CA_34  and  CB_37 
REMARK       I    between atoms: C_35  and  N_43 
REMARK   14  A    between atoms: CB_37  and  CG_38 
REMARK   15  A    between atoms: CG_38  and  CD_39 
REMARK   16  A    between atoms: N_43  and  CA_44 
REMARK   17  A    between atoms: CA_44  and  CB_47 
REMARK   18  A    between atoms: CA_44  and  C_45 
REMARK       I    between atoms: C_45  and  N_57 
REMARK   19  A    between atoms: CB_47  and  CG_48 
REMARK   20  A    between atoms: CZ_52  and  OH_53 
REMARK   21  A    between atoms: N_57  and  CA_58 
REMARK   22  A    between atoms: CA_58  and  CB_61 
REMARK   23  A    between atoms: CA_58  and  C_59 
REMARK       I    between atoms: C_59  and  N_74 
REMARK   24  A    between atoms: CB_61  and  CG_62 
REMARK   25  A    between atoms: CG_62  and  CD_63 
REMARK   26  A    between atoms: CD_63  and  NE_64 
REMARK       I    between atoms: NE_64  and  CZ_65 
REMARK       I    between atoms: CZ_65  and  NH2_66 
REMARK   27  A    between atoms: N_74  and  CA_75 
REMARK   28  A    between atoms: CA_75  and  CB_78 
REMARK   29  A    between atoms: CA_75  and  C_76 
REMARK       I    between atoms: C_76  and  N_85 
REMARK   30  A    between atoms: CB_78  and  CG_79 
REMARK       I    between atoms: CG_79  and  ND2_80 
REMARK   31  A    between atoms: N_85  and  CA_86 
REMARK   32  A    between atoms: CA_86  and  CB_89 
REMARK   33  A    between atoms: CA_86  and  C_87 
REMARK       I    between atoms: C_87  and  N_97 
REMARK   34  A    between atoms: CB_89  and  CG_90 
REMARK   35  A    between atoms: N_97  and  CA_98 
REMARK   36  A    between atoms: CA_98  and  C_99 
REMARK   37  A    between atoms: CA_98  and  CB_102 
REMARK   38  A    between atoms: CB_102  and  CG_103 
ROOT
ATOM      1  C   TYR A   5      -0.199 -23.885   8.198  1.00  0.00     0.241 C 
ATOM      2  O   TYR A   5      -0.849 -24.600   8.956  1.00  0.00    -0.271 OA
ATOM      3  N   ARG A   6      -0.803 -23.031   7.352  1.00  0.00    -0.346 N 
ATOM      4  H   ARG A   6      -0.207 -22.454   6.764  1.00  0.00     0.163 HD
ENDROOT
BRANCH   3   5
ATOM      5  CA  ARG A   6      -2.269 -22.843   7.280  1.00  0.00     0.176 C 
BRANCH   5   6
ATOM      6  CB  ARG A   6      -2.685 -21.764   8.301  1.00  0.00     0.036 C 
BRANCH   6   7
ATOM      7  CG  ARG A   6      -4.036 -22.066   8.989  1.00  0.00     0.023 C 
BRANCH   7   8
ATOM      8  CD  ARG A   6      -4.967 -20.845   9.072  1.00  0.00     0.138 C 
BRANCH   8   9
ATOM      9  NE  ARG A   6      -6.120 -20.963   8.154  1.00  0.00    -0.227 N 
ATOM     10  HE  ARG A   6      -6.935 -21.411   8.533  1.00  0.00     0.177 HD
ATOM     11  CZ  ARG A   6      -6.245 -20.455   6.938  1.00  0.00     0.665 C 
ATOM     12  NH2 ARG A   6      -7.382 -20.548   6.322  1.00  0.00    -0.235 N 
ATOM     13  NH1 ARG A   6      -5.284 -19.840   6.308  1.00  0.00    -0.235 N 
ATOM     14 1HH2 ARG A   6      -8.193 -20.746   6.876  1.00  0.00     0.174 HD
ATOM     15 2HH2 ARG A   6      -7.546 -19.897   5.572  1.00  0.00     0.174 HD
ATOM     16 1HH1 ARG A   6      -4.471 -19.558   6.827  1.00  0.00     0.174 HD
ATOM     17 2HH1 ARG A   6      -5.457 -19.428   5.410  1.00  0.00     0.174 HD
ENDBRANCH   8   9
ENDBRANCH   7   8
ENDBRANCH   6   7
ENDBRANCH   5   6
BRANCH   5  18
ATOM     18  C   ARG A   6      -2.788 -22.504   5.864  1.00  0.00     0.241 C 
ATOM     19  N   ASN A   7      -3.051 -23.494   4.999  1.00  0.00    -0.346 N 
ATOM     20  H   ASN A   7      -3.006 -24.449   5.330  1.00  0.00     0.163 HD
ATOM     21  O   ARG A   6      -2.831 -21.330   5.520  1.00  0.00    -0.271 OA
BRANCH  19  22
ATOM     22  CA  ASN A   7      -3.640 -23.236   3.671  1.00  0.00     0.185 C 
BRANCH  22  23
ATOM     23  CB  ASN A   7      -2.726 -23.763   2.548  1.00  0.00     0.137 C 
BRANCH  23  24
ATOM     24  CG  ASN A   7      -1.431 -24.443   2.942  1.00  0.00     0.217 C 
ATOM     25  ND2 ASN A   7      -1.555 -25.696   3.323  1.00  0.00    -0.370 N 
ATOM     26 2HD2 ASN A   7      -2.478 -26.068   3.538  1.00  0.00     0.159 HD
ATOM     27 1HD2 ASN A   7      -0.721 -26.206   3.524  1.00  0.00     0.159 HD
ATOM     28  OD1 ASN A   7      -0.319 -23.987   2.692  1.00  0.00    -0.274 OA
ENDBRANCH  23  24
ENDBRANCH  22  23
BRANCH  22  29
ATOM     29  C   ASN A   7      -5.042 -23.858   3.488  1.00  0.00     0.241 C 
ATOM     30  N   PHE A   8      -6.054 -23.341   4.202  1.00  0.00    -0.346 N 
ATOM     31  H   PHE A   8      -5.842 -22.607   4.869  1.00  0.00     0.163 HD
ATOM     32  O   ASN A   7      -5.163 -24.878   2.810  1.00  0.00    -0.271 OA
BRANCH  30  33
ATOM     33  CA  PHE A   8      -7.459 -23.755   4.066  1.00  0.00     0.180 C 
BRANCH  33  34
ATOM     34  CB  PHE A   8      -7.906 -24.326   5.429  1.00  0.00     0.073 C 
BRANCH  34  35
ATOM     35  CG  PHE A   8      -8.617 -25.666   5.351  1.00  0.00    -0.056 A 
ATOM     36  CD1 PHE A   8      -8.854 -26.271   4.101  1.00  0.00     0.007 A 
ATOM     37  CE1 PHE A   8      -9.628 -27.443   4.022  1.00  0.00     0.001 A 
ATOM     38  CZ  PHE A   8     -10.164 -28.013   5.191  1.00  0.00     0.000 A 
ATOM     39  CE2 PHE A   8      -9.900 -27.428   6.442  1.00  0.00     0.001 A 
ATOM     40  CD2 PHE A   8      -9.122 -26.260   6.522  1.00  0.00     0.007 A 
ENDBRANCH  34  35
ENDBRANCH  33  34
BRANCH  33  41
ATOM     41  C   PHE A   8      -8.382 -22.614   3.570  1.00  0.00     0.241 C 
ATOM     42  N   TRP A   9      -9.510 -22.400   4.265  1.00  0.00    -0.344 N 
ATOM     43  H   TRP A   9      -9.673 -22.984   5.070  1.00  0.00     0.163 HD
ATOM     44  O   PHE A   8      -8.082 -21.990   2.550  1.00  0.00    -0.271 OA
BRANCH  42  45
ATOM     45  CA  TRP A   9     -10.576 -21.433   3.947  1.00  0.00     0.190 C 
BRANCH  45  46
ATOM     46  C   TRP A   9     -10.165 -19.949   4.054  1.00  0.00     0.197 C 
ATOM     47  OXT TRP A   9      -9.874 -19.518   5.200  1.00  0.00    -0.646 OA
ATOM     48  O   TRP A   9     -10.510 -19.211   3.106  1.00  0.00    -0.646 OA
ENDBRANCH  45  46
BRANCH  45  49
ATOM     49  CB  TRP A   9     -11.766 -21.744   4.869  1.00  0.00     0.077 C 
BRANCH  49  50
ATOM     50  CG  TRP A   9     -12.897 -22.445   4.187  1.00  0.00    -0.028 A 
ATOM     51  CD1 TRP A   9     -13.695 -21.863   3.269  1.00  0.00     0.096 A 
ATOM     52  NE1 TRP A   9     -14.531 -22.805   2.707  1.00  0.00    -0.365 N 
ATOM     53  HE1 TRP A   9     -15.057 -22.619   1.872  1.00  0.00     0.165 HD
ATOM     54  CE2 TRP A   9     -14.262 -24.064   3.197  1.00  0.00     0.042 A 
ATOM     55  CD2 TRP A   9     -13.219 -23.868   4.150  1.00  0.00    -0.002 A 
ATOM     56  CZ2 TRP A   9     -14.762 -25.332   2.872  1.00  0.00     0.030 A 
ATOM     57  CE3 TRP A   9     -12.689 -25.026   4.763  1.00  0.00     0.014 A 
ATOM     58  CZ3 TRP A   9     -13.170 -26.308   4.431  1.00  0.00     0.001 A 
ATOM     59  CH2 TRP A   9     -14.205 -26.463   3.490  1.00  0.00     0.002 A 
ENDBRANCH  49  50
ENDBRANCH  45  49
ENDBRANCH  42  45
ENDBRANCH  33  41
ENDBRANCH  30  33
ENDBRANCH  22  29
ENDBRANCH  19  22
ENDBRANCH   5  18
ENDBRANCH   3   5
BRANCH   1  60
ATOM     60  CA  TYR A   5       1.300 -24.177   8.008  1.00  0.00     0.180 C 
BRANCH  60  61
ATOM     61  N   TYR A   5       1.550 -25.572   7.629  1.00  0.00    -0.346 N 
ATOM     62  H   TYR A   5       2.233 -26.099   8.155  1.00  0.00     0.163 HD
ATOM     63  C   GLU A   4       0.988 -26.140   6.549  1.00  0.00     0.241 C 
ATOM     64  O   GLU A   4       0.300 -25.481   5.775  1.00  0.00    -0.271 OA
BRANCH  63  65
ATOM     65  CA  GLU A   4       1.490 -27.531   6.136  1.00  0.00     0.177 C 
BRANCH  65  66
ATOM     66  N   GLU A   4       0.553 -28.585   6.563  1.00  0.00    -0.346 N 
ATOM     67  H   GLU A   4      -0.139 -28.879   5.886  1.00  0.00     0.163 HD
ATOM     68  C   PRO A   3       0.355 -28.971   7.828  1.00  0.00     0.241 C 
ATOM     69  O   PRO A   3       0.988 -28.517   8.766  1.00  0.00    -0.271 OA
BRANCH  68  70
ATOM     70  CA  PRO A   3      -0.698 -30.053   8.104  1.00  0.00     0.179 C 
ATOM     71  N   PRO A   3      -1.721 -30.259   7.055  1.00  0.00    -0.337 N 
ATOM     72  CD  PRO A   3      -1.762 -31.677   6.709  1.00  0.00     0.127 C 
ATOM     73  C   ASP A   2      -2.619 -29.301   6.701  1.00  0.00     0.243 C 
ATOM     74  CG  PRO A   3      -1.106 -32.402   7.882  1.00  0.00     0.022 C 
ATOM     75  CB  PRO A   3      -0.021 -31.417   8.304  1.00  0.00     0.037 C 
ATOM     76  O   ASP A   2      -2.440 -28.154   7.117  1.00  0.00    -0.271 OA
BRANCH  73  77
ATOM     77  CA  ASP A   2      -3.555 -29.462   5.452  1.00  0.00     0.186 C 
BRANCH  77  78
ATOM     78  CB  ASP A   2      -3.780 -28.176   4.639  1.00  0.00     0.147 C 
BRANCH  78  79
ATOM     79  CG  ASP A   2      -5.233 -27.733   4.697  1.00  0.00     0.175 C 
ATOM     80  OD2 ASP A   2      -5.971 -28.249   3.825  1.00  0.00    -0.648 OA
ATOM     81  OD1 ASP A   2      -5.598 -27.199   5.751  1.00  0.00    -0.648 OA
ENDBRANCH  78  79
ENDBRANCH  77  78
BRANCH  77  82
ATOM     82  N   ASP A   2      -4.885 -30.085   5.672  1.00  0.00    -0.345 N 
ATOM     83  H   ASP A   2      -5.269 -30.520   4.846  1.00  0.00     0.163 HD
ATOM     84  C   TYR A   1      -5.361 -30.423   6.882  1.00  0.00     0.249 C 
ATOM     85  O   TYR A   1      -4.856 -30.026   7.906  1.00  0.00    -0.271 OA
BRANCH  84  86
ATOM     86  CA  TYR A   1      -6.748 -31.013   7.037  1.00  0.00     0.278 C 
BRANCH  86  87
ATOM     87  N   TYR A   1      -7.270 -30.809   8.398  1.00  0.00    -0.066 N 
ATOM     88  H2  TYR A   1      -7.689 -29.894   8.479  1.00  0.00     0.275 HD
ATOM     89  H1  TYR A   1      -6.510 -30.893   9.059  1.00  0.00     0.275 HD
ATOM     90  H3  TYR A   1      -7.968 -31.517   8.598  1.00  0.00     0.275 HD
ENDBRANCH  86  87
BRANCH  86  91
ATOM     91  CB  TYR A   1      -7.743 -30.621   5.945  1.00  0.00     0.081 C 
BRANCH  91  92
ATOM     92  CG  TYR A   1      -8.499 -31.821   5.403  1.00  0.00    -0.056 A 
ATOM     93  CD2 TYR A   1      -8.213 -33.107   5.915  1.00  0.00     0.010 A 
ATOM     94  CE2 TYR A   1      -8.883 -34.233   5.404  1.00  0.00     0.037 A 
ATOM     95  CZ  TYR A   1      -9.851 -34.076   4.387  1.00  0.00     0.065 A 
ATOM     96  CE1 TYR A   1     -10.162 -32.792   3.902  1.00  0.00     0.037 A 
ATOM     97  CD1 TYR A   1      -9.491 -31.656   4.408  1.00  0.00     0.010 A 
BRANCH  95  98
ATOM     98  OH  TYR A   1     -10.488 -35.156   3.877  1.00  0.00    -0.361 OA
ATOM     99  HH  TYR A   1      -9.940 -35.628   3.249  1.00  0.00     0.217 HD
ENDBRANCH  95  98
ENDBRANCH  91  92
ENDBRANCH  86  91
ENDBRANCH  84  86
ENDBRANCH  77  82
ENDBRANCH  73  77
ENDBRANCH  68  70
ENDBRANCH  65  66
BRANCH  65 100
ATOM    100  CB  GLU A   4       1.686 -27.619   4.607  1.00  0.00     0.045 C 
BRANCH 100 101
ATOM    101  CG  GLU A   4       0.862 -28.704   3.895  1.00  0.00     0.116 C 
BRANCH 101 102
ATOM    102  CD  GLU A   4       1.763 -29.777   3.259  1.00  0.00     0.172 C 
ATOM    103  OE2 GLU A   4       2.909 -29.402   2.924  1.00  0.00    -0.648 OA
ATOM    104  OE1 GLU A   4       1.196 -30.805   2.811  1.00  0.00    -0.648 OA
ENDBRANCH 101 102
ENDBRANCH 100 101
ENDBRANCH  65 100
ENDBRANCH  63  65
ENDBRANCH  60  61
BRANCH  60 105
ATOM    105  CB  TYR A   5       1.944 -23.217   6.989  1.00  0.00     0.073 C 
BRANCH 105 106
ATOM    106  CG  TYR A   5       2.762 -22.067   7.568  1.00  0.00    -0.056 A 
ATOM    107  CD1 TYR A   5       4.152 -22.209   7.790  1.00  0.00     0.010 A 
ATOM    108  CE1 TYR A   5       4.924 -21.086   8.176  1.00  0.00     0.037 A 
ATOM    109  CZ  TYR A   5       4.306 -19.834   8.351  1.00  0.00     0.065 A 
ATOM    110  CE2 TYR A   5       2.914 -19.698   8.159  1.00  0.00     0.037 A 
ATOM    111  CD2 TYR A   5       2.146 -20.809   7.761  1.00  0.00     0.010 A 
BRANCH 109 112
ATOM    112  OH  TYR A   5       5.046 -18.754   8.693  1.00  0.00    -0.361 OA
ATOM    113  HH  TYR A   5       5.250 -18.245   7.906  1.00  0.00     0.217 HD
ENDBRANCH 109 112
ENDBRANCH 105 106
ENDBRANCH  60 105
ENDBRANCH   1  60
TORSDOF 38
ENDMDL
MODEL 4
REMARK VINA RESULT:      -3.1      1.651      2.250
REMARK WARNING: 32 MAX_TORS EXCEEDED!!!
REMARK  38 active torsions:
REMARK  status: ('A' for Active; 'I' for Inactive)
REMARK    1  A    between atoms: N_1  and  CA_2 
REMARK    2  A    between atoms: CA_2  and  CB_5 
REMARK    3  A    between atoms: CA_2  and  C_3 
REMARK       I    between atoms: C_3  and  N_17 
REMARK    4  A    between atoms: CB_5  and  CG_6 
REMARK    5  A    between atoms: CZ_10  and  OH_11 
REMARK    6  A    between atoms: N_17  and  CA_18 
REMARK    7  A    between atoms: CA_18  and  CB_21 
REMARK    8  A    between atoms: CA_18  and  C_19 
REMARK       I    between atoms: C_19  and  N_26 
REMARK    9  A    between atoms: CB_21  and  CG_22 
REMARK   10  A    between atoms: CA_27  and  C_28 
REMARK       I    between atoms: C_28  and  N_33 
REMARK   11  A    between atoms: N_33  and  CA_34 
REMARK   12  A    between atoms: CA_34  and  C_35 
REMARK   13  A    between atoms: CA_34  and  CB_37 
REMARK       I    between atoms: C_35  and  N_43 
REMARK   14  A    between atoms: CB_37  and  CG_38 
REMARK   15  A    between atoms: CG_38  and  CD_39 
REMARK   16  A    between atoms: N_43  and  CA_44 
REMARK   17  A    between atoms: CA_44  and  CB_47 
REMARK   18  A    between atoms: CA_44  and  C_45 
REMARK       I    between atoms: C_45  and  N_57 
REMARK   19  A    between atoms: CB_47  and  CG_48 
REMARK   20  A    between atoms: CZ_52  and  OH_53 
REMARK   21  A    between atoms: N_57  and  CA_58 
REMARK   22  A    between atoms: CA_58  and  CB_61 
REMARK   23  A    between atoms: CA_58  and  C_59 
REMARK       I    between atoms: C_59  and  N_74 
REMARK   24  A    between atoms: CB_61  and  CG_62 
REMARK   25  A    between atoms: CG_62  and  CD_63 
REMARK   26  A    between atoms: CD_63  and  NE_64 
REMARK       I    between atoms: NE_64  and  CZ_65 
REMARK       I    between atoms: CZ_65  and  NH2_66 
REMARK   27  A    between atoms: N_74  and  CA_75 
REMARK   28  A    between atoms: CA_75  and  CB_78 
REMARK   29  A    between atoms: CA_75  and  C_76 
REMARK       I    between atoms: C_76  and  N_85 
REMARK   30  A    between atoms: CB_78  and  CG_79 
REMARK       I    between atoms: CG_79  and  ND2_80 
REMARK   31  A    between atoms: N_85  and  CA_86 
REMARK   32  A    between atoms: CA_86  and  CB_89 
REMARK   33  A    between atoms: CA_86  and  C_87 
REMARK       I    between atoms: C_87  and  N_97 
REMARK   34  A    between atoms: CB_89  and  CG_90 
REMARK   35  A    between atoms: N_97  and  CA_98 
REMARK   36  A    between atoms: CA_98  and  C_99 
REMARK   37  A    between atoms: CA_98  and  CB_102 
REMARK   38  A    between atoms: CB_102  and  CG_103 
ROOT
ATOM      1  C   TYR A   5      -8.985 -14.865   4.979  1.00  0.00     0.241 C 
ATOM      2  O   TYR A   5      -8.548 -15.537   4.048  1.00  0.00    -0.271 OA
ATOM      3  N   ARG A   6      -9.208 -15.408   6.188  1.00  0.00    -0.346 N 
ATOM      4  H   ARG A   6      -9.554 -14.793   6.921  1.00  0.00     0.163 HD
ENDROOT
BRANCH   3   5
ATOM      5  CA  ARG A   6      -8.920 -16.820   6.524  1.00  0.00     0.176 C 
BRANCH   5   6
ATOM      6  CB  ARG A   6      -8.837 -16.962   8.057  1.00  0.00     0.036 C 
BRANCH   6   7
ATOM      7  CG  ARG A   6      -7.386 -17.064   8.581  1.00  0.00     0.023 C 
BRANCH   7   8
ATOM      8  CD  ARG A   6      -6.851 -15.744   9.159  1.00  0.00     0.138 C 
BRANCH   8   9
ATOM      9  NE  ARG A   6      -6.066 -14.980   8.165  1.00  0.00    -0.227 N 
ATOM     10  HE  ARG A   6      -6.582 -14.632   7.377  1.00  0.00     0.177 HD
ATOM     11  CZ  ARG A   6      -4.797 -14.610   8.242  1.00  0.00     0.665 C 
ATOM     12  NH2 ARG A   6      -4.304 -13.830   7.331  1.00  0.00    -0.235 N 
ATOM     13  NH1 ARG A   6      -3.995 -14.973   9.203  1.00  0.00    -0.235 N 
ATOM     14 1HH2 ARG A   6      -4.951 -13.316   6.764  1.00  0.00     0.174 HD
ATOM     15 2HH2 ARG A   6      -3.474 -13.316   7.575  1.00  0.00     0.174 HD
ATOM     16 1HH1 ARG A   6      -4.388 -15.387  10.029  1.00  0.00     0.174 HD
ATOM     17 2HH1 ARG A   6      -3.059 -14.613   9.236  1.00  0.00     0.174 HD
ENDBRANCH   8   9
ENDBRANCH   7   8
ENDBRANCH   6   7
ENDBRANCH   5   6
BRANCH   5  18
ATOM     18  C   ARG A   6      -9.927 -17.826   5.921  1.00  0.00     0.241 C 
ATOM     19  N   ASN A   7      -9.665 -18.399   4.738  1.00  0.00    -0.346 N 
ATOM     20  H   ASN A   7      -8.759 -18.243   4.315  1.00  0.00     0.163 HD
ATOM     21  O   ARG A   6     -11.005 -17.984   6.481  1.00  0.00    -0.271 OA
BRANCH  19  22
ATOM     22  CA  ASN A   7     -10.541 -19.439   4.162  1.00  0.00     0.185 C 
BRANCH  22  23
ATOM     23  CB  ASN A   7     -11.341 -18.888   2.966  1.00  0.00     0.137 C 
BRANCH  23  24
ATOM     24  CG  ASN A   7     -11.891 -17.479   3.064  1.00  0.00     0.217 C 
ATOM     25  ND2 ASN A   7     -12.890 -17.329   3.908  1.00  0.00    -0.370 N 
ATOM     26 2HD2 ASN A   7     -13.369 -18.151   4.270  1.00  0.00     0.159 HD
ATOM     27 1HD2 ASN A   7     -13.237 -16.407   4.059  1.00  0.00     0.159 HD
ATOM     28  OD1 ASN A   7     -11.317 -16.491   2.616  1.00  0.00    -0.274 OA
ENDBRANCH  23  24
ENDBRANCH  22  23
BRANCH  22  29
ATOM     29  C   ASN A   7      -9.778 -20.699   3.697  1.00  0.00     0.241 C 
ATOM     30  N   PHE A   8      -9.551 -21.662   4.602  1.00  0.00    -0.346 N 
ATOM     31  H   PHE A   8      -9.839 -21.495   5.561  1.00  0.00     0.163 HD
ATOM     32  O   ASN A   7      -9.290 -20.722   2.567  1.00  0.00    -0.271 OA
BRANCH  30  33
ATOM     33  CA  PHE A   8      -8.929 -22.959   4.293  1.00  0.00     0.180 C 
BRANCH  33  34
ATOM     34  CB  PHE A   8      -8.344 -23.516   5.608  1.00  0.00     0.073 C 
BRANCH  34  35
ATOM     35  CG  PHE A   8      -7.062 -22.841   6.066  1.00  0.00    -0.056 A 
ATOM     36  CD1 PHE A   8      -6.040 -22.558   5.139  1.00  0.00     0.007 A 
ATOM     37  CE1 PHE A   8      -4.804 -22.057   5.585  1.00  0.00     0.001 A 
ATOM     38  CZ  PHE A   8      -4.589 -21.835   6.957  1.00  0.00     0.000 A 
ATOM     39  CE2 PHE A   8      -5.619 -22.086   7.880  1.00  0.00     0.001 A 
ATOM     40  CD2 PHE A   8      -6.857 -22.582   7.434  1.00  0.00     0.007 A 
ENDBRANCH  34  35
ENDBRANCH  33  34
BRANCH  33  41
ATOM     41  C   PHE A   8      -9.904 -23.951   3.610  1.00  0.00     0.241 C 
ATOM     42  N   TRP A   9     -11.147 -24.025   4.112  1.00  0.00    -0.344 N 
ATOM     43  H   TRP A   9     -11.366 -23.418   4.888  1.00  0.00     0.163 HD
ATOM     44  O   PHE A   8      -9.501 -24.659   2.685  1.00  0.00    -0.271 OA
BRANCH  42  45
ATOM     45  CA  TRP A   9     -12.221 -24.940   3.689  1.00  0.00     0.190 C 
BRANCH  45  46
ATOM     46  C   TRP A   9     -13.569 -24.260   3.368  1.00  0.00     0.197 C 
ATOM     47  OXT TRP A   9     -13.638 -23.016   3.545  1.00  0.00    -0.646 OA
ATOM     48  O   TRP A   9     -14.570 -25.008   3.331  1.00  0.00    -0.646 OA
ENDBRANCH  45  46
BRANCH  45  49
ATOM     49  CB  TRP A   9     -12.384 -25.997   4.792  1.00  0.00     0.077 C 
BRANCH  49  50
ATOM     50  CG  TRP A   9     -11.730 -27.305   4.483  1.00  0.00    -0.028 A 
ATOM     51  CD1 TRP A   9     -11.308 -27.660   3.253  1.00  0.00     0.096 A 
ATOM     52  NE1 TRP A   9     -10.605 -28.844   3.319  1.00  0.00    -0.365 N 
ATOM     53  HE1 TRP A   9     -10.042 -29.173   2.554  1.00  0.00     0.165 HD
ATOM     54  CE2 TRP A   9     -10.483 -29.278   4.621  1.00  0.00     0.042 A 
ATOM     55  CD2 TRP A   9     -11.196 -28.314   5.393  1.00  0.00    -0.002 A 
ATOM     56  CZ2 TRP A   9      -9.791 -30.350   5.200  1.00  0.00     0.030 A 
ATOM     57  CE3 TRP A   9     -11.170 -28.475   6.797  1.00  0.00     0.014 A 
ATOM     58  CZ3 TRP A   9     -10.462 -29.538   7.393  1.00  0.00     0.001 A 
ATOM     59  CH2 TRP A   9      -9.775 -30.475   6.599  1.00  0.00     0.002 A 
ENDBRANCH  49  50
ENDBRANCH  45  49
ENDBRANCH  42  45
ENDBRANCH  33  41
ENDBRANCH  30  33
ENDBRANCH  22  29
ENDBRANCH  19  22
ENDBRANCH   5  18
ENDBRANCH   3   5
BRANCH   1  60
ATOM     60  CA  TYR A   5      -9.555 -13.467   4.678  1.00  0.00     0.180 C 
BRANCH  60  61
ATOM     61  N   TYR A   5     -10.846 -13.532   3.985  1.00  0.00    -0.346 N 
ATOM     62  H   TYR A   5     -10.907 -13.164   3.046  1.00  0.00     0.163 HD
ATOM     63  C   GLU A   4     -11.969 -13.960   4.585  1.00  0.00     0.241 C 
ATOM     64  O   GLU A   4     -11.980 -14.237   5.780  1.00  0.00    -0.271 OA
BRANCH  63  65
ATOM     65  CA  GLU A   4     -13.292 -13.779   3.826  1.00  0.00     0.177 C 
BRANCH  65  66
ATOM     66  N   GLU A   4     -14.448 -14.069   4.693  1.00  0.00    -0.346 N 
ATOM     67  H   GLU A   4     -14.379 -13.769   5.657  1.00  0.00     0.163 HD
ATOM     68  C   PRO A   3     -15.431 -14.927   4.401  1.00  0.00     0.241 C 
ATOM     69  O   PRO A   3     -15.496 -15.524   3.340  1.00  0.00    -0.271 OA
BRANCH  68  70
ATOM     70  CA  PRO A   3     -16.538 -15.149   5.442  1.00  0.00     0.179 C 
ATOM     71  N   PRO A   3     -16.230 -16.092   6.539  1.00  0.00    -0.337 N 
ATOM     72  CD  PRO A   3     -16.502 -15.435   7.815  1.00  0.00     0.127 C 
ATOM     73  C   ASP A   2     -15.990 -17.414   6.332  1.00  0.00     0.243 C 
ATOM     74  CG  PRO A   3     -17.427 -14.265   7.482  1.00  0.00     0.022 C 
ATOM     75  CB  PRO A   3     -16.906 -13.821   6.119  1.00  0.00     0.037 C 
ATOM     76  O   ASP A   2     -15.814 -17.798   5.173  1.00  0.00    -0.271 OA
BRANCH  73  77
ATOM     77  CA  ASP A   2     -15.465 -18.352   7.475  1.00  0.00     0.186 C 
BRANCH  77  78
ATOM     78  CB  ASP A   2     -13.977 -18.726   7.376  1.00  0.00     0.147 C 
BRANCH  78  79
ATOM     79  CG  ASP A   2     -13.334 -18.804   8.750  1.00  0.00     0.175 C 
ATOM     80  OD2 ASP A   2     -13.742 -17.945   9.567  1.00  0.00    -0.648 OA
ATOM     81  OD1 ASP A   2     -12.753 -19.862   9.021  1.00  0.00    -0.648 OA
ENDBRANCH  78  79
ENDBRANCH  77  78
BRANCH  77  82
ATOM     82  N   ASP A   2     -16.220 -19.605   7.731  1.00  0.00    -0.345 N 
ATOM     83  H   ASP A   2     -16.997 -19.486   8.363  1.00  0.00     0.163 HD
ATOM     84  C   TYR A   1     -16.178 -20.680   6.926  1.00  0.00     0.249 C 
ATOM     85  O   TYR A   1     -15.338 -20.809   6.067  1.00  0.00    -0.271 OA
BRANCH  84  86
ATOM     86  CA  TYR A   1     -16.938 -21.943   7.273  1.00  0.00     0.278 C 
BRANCH  86  87
ATOM     87  N   TYR A   1     -17.062 -22.113   8.731  1.00  0.00    -0.066 N 
ATOM     88  H2  TYR A   1     -16.165 -22.341   9.134  1.00  0.00     0.275 HD
ATOM     89  H1  TYR A   1     -17.717 -22.859   8.921  1.00  0.00     0.275 HD
ATOM     90  H3  TYR A   1     -17.406 -21.252   9.141  1.00  0.00     0.275 HD
ENDBRANCH  86  87
BRANCH  86  91
ATOM     91  CB  TYR A   1     -18.262 -22.127   6.532  1.00  0.00     0.081 C 
BRANCH  91  92
ATOM     92  CG  TYR A   1     -18.418 -23.533   5.981  1.00  0.00    -0.056 A 
ATOM     93  CD2 TYR A   1     -17.262 -24.300   5.706  1.00  0.00     0.010 A 
ATOM     94  CE2 TYR A   1     -17.388 -25.594   5.168  1.00  0.00     0.037 A 
ATOM     95  CZ  TYR A   1     -18.670 -26.131   4.914  1.00  0.00     0.065 A 
ATOM     96  CE1 TYR A   1     -19.822 -25.382   5.221  1.00  0.00     0.037 A 
ATOM     97  CD1 TYR A   1     -19.703 -24.080   5.758  1.00  0.00     0.010 A 
BRANCH  95  98
ATOM     98  OH  TYR A   1     -18.800 -27.368   4.381  1.00  0.00    -0.361 OA
ATOM     99  HH  TYR A   1     -18.730 -27.352   3.425  1.00  0.00     0.217 HD
ENDBRANCH  95  98
ENDBRANCH  91  92
ENDBRANCH  86  91
ENDBRANCH  84  86
ENDBRANCH  77  82
ENDBRANCH  73  77
ENDBRANCH  68  70
ENDBRANCH  65  66
BRANCH  65 100
ATOM    100  CB  GLU A   4     -13.423 -12.343   3.274  1.00  0.00     0.045 C 
BRANCH 100 101
ATOM    101  CG  GLU A   4     -14.068 -11.323   4.227  1.00  0.00     0.116 C 
BRANCH 101 102
ATOM    102  CD  GLU A   4     -13.017 -10.614   5.098  1.00  0.00     0.172 C 
ATOM    103  OE2 GLU A   4     -12.927 -11.011   6.281  1.00  0.00    -0.648 OA
ATOM    104  OE1 GLU A   4     -12.597  -9.501   4.692  1.00  0.00    -0.648 OA
ENDBRANCH 101 102
ENDBRANCH 100 101
ENDBRANCH  65 100
ENDBRANCH  63  65
ENDBRANCH  60  61
BRANCH  60 105
ATOM    105  CB  TYR A   5      -9.670 -12.612   5.955  1.00  0.00     0.073 C 
BRANCH 105 106
ATOM    106  CG  TYR A   5      -8.619 -11.521   6.134  1.00  0.00    -0.056 A 
ATOM    107  CD1 TYR A   5      -8.938 -10.164   5.891  1.00  0.00     0.010 A 
ATOM    108  CE1 TYR A   5      -8.002  -9.150   6.213  1.00  0.00     0.037 A 
ATOM    109  CZ  TYR A   5      -6.754  -9.495   6.764  1.00  0.00     0.065 A 
ATOM    110  CE2 TYR A   5      -6.423 -10.850   6.979  1.00  0.00     0.037 A 
ATOM    111  CD2 TYR A   5      -7.356 -11.859   6.673  1.00  0.00     0.010 A 
BRANCH 109 112
ATOM    112  OH  TYR A   5      -5.870  -8.526   7.098  1.00  0.00    -0.361 OA
ATOM    113  HH  TYR A   5      -5.659  -8.005   6.320  1.00  0.00     0.217 HD
ENDBRANCH 109 112
ENDBRANCH 105 106
ENDBRANCH  60 105
ENDBRANCH   1  60
TORSDOF 38
ENDMDL
MODEL 5
REMARK VINA RESULT:      -3.1     25.468     34.672
REMARK WARNING: 32 MAX_TORS EXCEEDED!!!
REMARK  38 active torsions:
REMARK  status: ('A' for Active; 'I' for Inactive)
REMARK    1  A    between atoms: N_1  and  CA_2 
REMARK    2  A    between atoms: CA_2  and  CB_5 
REMARK    3  A    between atoms: CA_2  and  C_3 
REMARK       I    between atoms: C_3  and  N_17 
REMARK    4  A    between atoms: CB_5  and  CG_6 
REMARK    5  A    between atoms: CZ_10  and  OH_11 
REMARK    6  A    between atoms: N_17  and  CA_18 
REMARK    7  A    between atoms: CA_18  and  CB_21 
REMARK    8  A    between atoms: CA_18  and  C_19 
REMARK       I    between atoms: C_19  and  N_26 
REMARK    9  A    between atoms: CB_21  and  CG_22 
REMARK   10  A    between atoms: CA_27  and  C_28 
REMARK       I    between atoms: C_28  and  N_33 
REMARK   11  A    between atoms: N_33  and  CA_34 
REMARK   12  A    between atoms: CA_34  and  C_35 
REMARK   13  A    between atoms: CA_34  and  CB_37 
REMARK       I    between atoms: C_35  and  N_43 
REMARK   14  A    between atoms: CB_37  and  CG_38 
REMARK   15  A    between atoms: CG_38  and  CD_39 
REMARK   16  A    between atoms: N_43  and  CA_44 
REMARK   17  A    between atoms: CA_44  and  CB_47 
REMARK   18  A    between atoms: CA_44  and  C_45 
REMARK       I    between atoms: C_45  and  N_57 
REMARK   19  A    between atoms: CB_47  and  CG_48 
REMARK   20  A    between atoms: CZ_52  and  OH_53 
REMARK   21  A    between atoms: N_57  and  CA_58 
REMARK   22  A    between atoms: CA_58  and  CB_61 
REMARK   23  A    between atoms: CA_58  and  C_59 
REMARK       I    between atoms: C_59  and  N_74 
REMARK   24  A    between atoms: CB_61  and  CG_62 
REMARK   25  A    between atoms: CG_62  and  CD_63 
REMARK   26  A    between atoms: CD_63  and  NE_64 
REMARK       I    between atoms: NE_64  and  CZ_65 
REMARK       I    between atoms: CZ_65  and  NH2_66 
REMARK   27  A    between atoms: N_74  and  CA_75 
REMARK   28  A    between atoms: CA_75  and  CB_78 
REMARK   29  A    between atoms: CA_75  and  C_76 
REMARK       I    between atoms: C_76  and  N_85 
REMARK   30  A    between atoms: CB_78  and  CG_79 
REMARK       I    between atoms: CG_79  and  ND2_80 
REMARK   31  A    between atoms: N_85  and  CA_86 
REMARK   32  A    between atoms: CA_86  and  CB_89 
REMARK   33  A    between atoms: CA_86  and  C_87 
REMARK       I    between atoms: C_87  and  N_97 
REMARK   34  A    between atoms: CB_89  and  CG_90 
REMARK   35  A    between atoms: N_97  and  CA_98 
REMARK   36  A    between atoms: CA_98  and  C_99 
REMARK   37  A    between atoms: CA_98  and  CB_102 
REMARK   38  A    between atoms: CB_102  and  CG_103 
ROOT
ATOM      1  C   TYR A   5      16.626  -2.355   4.251  1.00  0.00     0.241 C 
ATOM      2  O   TYR A   5      16.008  -2.431   3.192  1.00  0.00    -0.271 OA
ATOM      3  N   ARG A   6      16.392  -1.363   5.128  1.00  0.00    -0.346 N 
ATOM      4  H   ARG A   6      16.925  -1.367   5.993  1.00  0.00     0.163 HD
ENDROOT
BRANCH   3   5
ATOM      5  CA  ARG A   6      15.365  -0.315   4.932  1.00  0.00     0.176 C 
BRANCH   5   6
ATOM      6  CB  ARG A   6      14.187  -0.586   5.889  1.00  0.00     0.036 C 
BRANCH   6   7
ATOM      7  CG  ARG A   6      12.969  -1.233   5.189  1.00  0.00     0.023 C 
BRANCH   7   8
ATOM      8  CD  ARG A   6      11.618  -0.714   5.706  1.00  0.00     0.138 C 
BRANCH   8   9
ATOM      9  NE  ARG A   6      10.949   0.167   4.724  1.00  0.00    -0.227 N 
ATOM     10  HE  ARG A   6      10.240  -0.268   4.162  1.00  0.00     0.177 HD
ATOM     11  CZ  ARG A   6      11.094   1.475   4.575  1.00  0.00     0.665 C 
ATOM     12  NH2 ARG A   6      10.328   2.109   3.743  1.00  0.00    -0.235 N 
ATOM     13  NH1 ARG A   6      11.966   2.186   5.232  1.00  0.00    -0.235 N 
ATOM     14 1HH2 ARG A   6       9.484   1.655   3.454  1.00  0.00     0.174 HD
ATOM     15 2HH2 ARG A   6      10.233   3.102   3.882  1.00  0.00     0.174 HD
ATOM     16 1HH1 ARG A   6      12.418   1.776   6.030  1.00  0.00     0.174 HD
ATOM     17 2HH1 ARG A   6      11.990   3.182   5.115  1.00  0.00     0.174 HD
ENDBRANCH   8   9
ENDBRANCH   7   8
ENDBRANCH   6   7
ENDBRANCH   5   6
BRANCH   5  18
ATOM     18  C   ARG A   6      15.900   1.125   5.095  1.00  0.00     0.241 C 
ATOM     19  N   ASN A   7      15.407   2.107   4.327  1.00  0.00    -0.346 N 
ATOM     20  H   ASN A   7      14.616   1.903   3.730  1.00  0.00     0.163 HD
ATOM     21  O   ARG A   6      16.854   1.316   5.838  1.00  0.00    -0.271 OA
BRANCH  19  22
ATOM     22  CA  ASN A   7      15.809   3.516   4.506  1.00  0.00     0.185 C 
BRANCH  22  23
ATOM     23  CB  ASN A   7      16.797   3.954   3.407  1.00  0.00     0.137 C 
BRANCH  23  24
ATOM     24  CG  ASN A   7      17.975   4.817   3.811  1.00  0.00     0.217 C 
ATOM     25  ND2 ASN A   7      18.975   4.829   2.956  1.00  0.00    -0.370 N 
ATOM     26 2HD2 ASN A   7      19.012   4.131   2.216  1.00  0.00     0.159 HD
ATOM     27 1HD2 ASN A   7      19.742   5.438   3.145  1.00  0.00     0.159 HD
ATOM     28  OD1 ASN A   7      17.931   5.650   4.712  1.00  0.00    -0.274 OA
ENDBRANCH  23  24
ENDBRANCH  22  23
BRANCH  22  29
ATOM     29  C   ASN A   7      14.618   4.500   4.508  1.00  0.00     0.241 C 
ATOM     30  N   PHE A   8      14.759   5.651   5.182  1.00  0.00    -0.346 N 
ATOM     31  H   PHE A   8      15.616   5.797   5.705  1.00  0.00     0.163 HD
ATOM     32  O   ASN A   7      13.547   4.147   4.016  1.00  0.00    -0.271 OA
BRANCH  30  33
ATOM     33  CA  PHE A   8      13.760   6.730   5.197  1.00  0.00     0.180 C 
BRANCH  33  34
ATOM     34  CB  PHE A   8      13.844   7.420   6.575  1.00  0.00     0.073 C 
BRANCH  34  35
ATOM     35  CG  PHE A   8      12.514   7.561   7.295  1.00  0.00    -0.056 A 
ATOM     36  CD1 PHE A   8      12.481   7.773   8.687  1.00  0.00     0.007 A 
ATOM     37  CE1 PHE A   8      11.251   7.771   9.370  1.00  0.00     0.001 A 
ATOM     38  CZ  PHE A   8      10.054   7.559   8.663  1.00  0.00     0.000 A 
ATOM     39  CE2 PHE A   8      10.083   7.381   7.269  1.00  0.00     0.001 A 
ATOM     40  CD2 PHE A   8      11.311   7.389   6.585  1.00  0.00     0.007 A 
ENDBRANCH  34  35
ENDBRANCH  33  34
BRANCH  33  41
ATOM     41  C   PHE A   8      13.927   7.728   4.024  1.00  0.00     0.241 C 
ATOM     42  N   TRP A   9      14.242   8.994   4.342  1.00  0.00    -0.344 N 
ATOM     43  H   TRP A   9      14.364   9.205   5.320  1.00  0.00     0.163 HD
ATOM     44  O   PHE A   8      13.721   7.348   2.869  1.00  0.00    -0.271 OA
BRANCH  42  45
ATOM     45  CA  TRP A   9      14.377  10.132   3.417  1.00  0.00     0.190 C 
BRANCH  45  46
ATOM     46  C   TRP A   9      15.830  10.552   3.105  1.00  0.00     0.197 C 
ATOM     47  OXT TRP A   9      16.718   9.669   3.231  1.00  0.00    -0.646 OA
ATOM     48  O   TRP A   9      16.068  11.778   3.129  1.00  0.00    -0.646 OA
ENDBRANCH  45  46
BRANCH  45  49
ATOM     49  CB  TRP A   9      13.580  11.304   4.013  1.00  0.00     0.077 C 
BRANCH  49  50
ATOM     50  CG  TRP A   9      13.419  11.237   5.497  1.00  0.00    -0.028 A 
ATOM     51  CD1 TRP A   9      14.412  11.494   6.372  1.00  0.00     0.096 A 
ATOM     52  NE1 TRP A   9      13.915  11.512   7.658  1.00  0.00    -0.365 N 
ATOM     53  HE1 TRP A   9      14.445  11.878   8.429  1.00  0.00     0.165 HD
ATOM     54  CE2 TRP A   9      12.550  11.330   7.666  1.00  0.00     0.042 A 
ATOM     55  CD2 TRP A   9      12.199  11.149   6.295  1.00  0.00    -0.002 A 
ATOM     56  CZ2 TRP A   9      11.596  11.366   8.692  1.00  0.00     0.030 A 
ATOM     57  CE3 TRP A   9      10.824  11.014   6.000  1.00  0.00     0.014 A 
ATOM     58  CZ3 TRP A   9       9.854  11.067   7.022  1.00  0.00     0.001 A 
ATOM     59  CH2 TRP A   9      10.236  11.240   8.365  1.00  0.00     0.002 A 
ENDBRANCH  49  50
ENDBRANCH  45  49
ENDBRANCH  42  45
ENDBRANCH  33  41
ENDBRANCH  30  33
ENDBRANCH  22  29
ENDBRANCH  19  22
ENDBRANCH   5  18
ENDBRANCH   3   5
BRANCH   1  60
ATOM     60  CA  TYR A   5      17.879  -3.230   4.440  1.00  0.00     0.180 C 
BRANCH  60  61
ATOM     61  N   TYR A   5      17.792  -4.068   5.641  1.00  0.00    -0.346 N 
ATOM     62  H   TYR A   5      18.538  -4.015   6.320  1.00  0.00     0.163 HD
ATOM     63  C   GLU A   4      16.819  -4.978   5.820  1.00  0.00     0.241 C 
ATOM     64  O   GLU A   4      16.001  -5.208   4.936  1.00  0.00    -0.271 OA
BRANCH  63  65
ATOM     65  CA  GLU A   4      16.957  -5.939   7.009  1.00  0.00     0.177 C 
BRANCH  65  66
ATOM     66  N   GLU A   4      15.768  -6.799   7.140  1.00  0.00    -0.346 N 
ATOM     67  H   GLU A   4      15.082  -6.742   6.398  1.00  0.00     0.163 HD
ATOM     68  C   PRO A   3      15.386  -7.415   8.263  1.00  0.00     0.241 C 
ATOM     69  O   PRO A   3      16.031  -7.370   9.297  1.00  0.00    -0.271 OA
BRANCH  68  70
ATOM     70  CA  PRO A   3      14.089  -8.237   8.239  1.00  0.00     0.179 C 
ATOM     71  N   PRO A   3      14.241  -9.704   8.124  1.00  0.00    -0.337 N 
ATOM     72  CD  PRO A   3      13.481 -10.342   9.196  1.00  0.00     0.127 C 
ATOM     73  C   ASP A   2      14.788 -10.307   7.035  1.00  0.00     0.243 C 
ATOM     74  CG  PRO A   3      12.483  -9.288   9.672  1.00  0.00     0.022 C 
ATOM     75  CB  PRO A   3      13.282  -7.997   9.524  1.00  0.00     0.037 C 
ATOM     76  O   ASP A   2      15.369  -9.599   6.209  1.00  0.00    -0.271 OA
BRANCH  73  77
ATOM     77  CA  ASP A   2      15.129 -11.839   7.018  1.00  0.00     0.186 C 
BRANCH  77  78
ATOM     78  CB  ASP A   2      16.618 -12.170   6.825  1.00  0.00     0.147 C 
BRANCH  78  79
ATOM     79  CG  ASP A   2      16.828 -13.657   6.590  1.00  0.00     0.175 C 
ATOM     80  OD2 ASP A   2      17.476 -13.936   5.555  1.00  0.00    -0.648 OA
ATOM     81  OD1 ASP A   2      16.643 -14.393   7.567  1.00  0.00    -0.648 OA
ENDBRANCH  78  79
ENDBRANCH  77  78
BRANCH  77  82
ATOM     82  N   ASP A   2      14.360 -12.699   6.083  1.00  0.00    -0.345 N 
ATOM     83  H   ASP A   2      14.873 -12.953   5.253  1.00  0.00     0.163 HD
ATOM     84  C   TYR A   1      13.283 -13.417   6.444  1.00  0.00     0.249 C 
ATOM     85  O   TYR A   1      12.707 -13.232   7.490  1.00  0.00    -0.271 OA
BRANCH  84  86
ATOM     86  CA  TYR A   1      12.517 -14.236   5.426  1.00  0.00     0.278 C 
BRANCH  86  87
ATOM     87  N   TYR A   1      12.878 -13.859   4.049  1.00  0.00    -0.066 N 
ATOM     88  H2  TYR A   1      12.239 -13.161   3.699  1.00  0.00     0.275 HD
ATOM     89  H1  TYR A   1      12.838 -14.680   3.461  1.00  0.00     0.275 HD
ATOM     90  H3  TYR A   1      13.821 -13.485   4.040  1.00  0.00     0.275 HD
ENDBRANCH  86  87
BRANCH  86  91
ATOM     91  CB  TYR A   1      12.540 -15.746   5.661  1.00  0.00     0.081 C 
BRANCH  91  92
ATOM     92  CG  TYR A   1      11.238 -16.252   6.255  1.00  0.00    -0.056 A 
ATOM     93  CD2 TYR A   1      10.196 -16.659   5.390  1.00  0.00     0.010 A 
ATOM     94  CE2 TYR A   1       8.972 -17.103   5.924  1.00  0.00     0.037 A 
ATOM     95  CZ  TYR A   1       8.789 -17.154   7.323  1.00  0.00     0.065 A 
ATOM     96  CE1 TYR A   1       9.839 -16.784   8.186  1.00  0.00     0.037 A 
ATOM     97  CD1 TYR A   1      11.070 -16.333   7.658  1.00  0.00     0.010 A 
BRANCH  95  98
ATOM     98  OH  TYR A   1       7.610 -17.564   7.845  1.00  0.00    -0.361 OA
ATOM     99  HH  TYR A   1       7.517 -18.516   7.807  1.00  0.00     0.217 HD
ENDBRANCH  95  98
ENDBRANCH  91  92
ENDBRANCH  86  91
ENDBRANCH  84  86
ENDBRANCH  77  82
ENDBRANCH  73  77
ENDBRANCH  68  70
ENDBRANCH  65  66
BRANCH  65 100
ATOM    100  CB  GLU A   4      18.210  -6.829   6.861  1.00  0.00     0.045 C 
BRANCH 100 101
ATOM    101  CG  GLU A   4      18.156  -7.866   5.727  1.00  0.00     0.116 C 
BRANCH 101 102
ATOM    102  CD  GLU A   4      18.883  -9.166   6.109  1.00  0.00     0.172 C 
ATOM    103  OE2 GLU A   4      18.840  -9.483   7.319  1.00  0.00    -0.648 OA
ATOM    104  OE1 GLU A   4      19.731  -9.606   5.293  1.00  0.00    -0.648 OA
ENDBRANCH 101 102
ENDBRANCH 100 101
ENDBRANCH  65 100
ENDBRANCH  63  65
ENDBRANCH  60  61
BRANCH  60 105
ATOM    105  CB  TYR A   5      18.165  -4.094   3.197  1.00  0.00     0.073 C 
BRANCH 105 106
ATOM    106  CG  TYR A   5      19.547  -4.734   3.123  1.00  0.00    -0.056 A 
ATOM    107  CD1 TYR A   5      20.715  -3.952   3.286  1.00  0.00     0.010 A 
ATOM    108  CE1 TYR A   5      21.980  -4.583   3.373  1.00  0.00     0.037 A 
ATOM    109  CZ  TYR A   5      22.075  -5.984   3.285  1.00  0.00     0.065 A 
ATOM    110  CE2 TYR A   5      20.914  -6.763   3.092  1.00  0.00     0.037 A 
ATOM    111  CD2 TYR A   5      19.653  -6.140   3.019  1.00  0.00     0.010 A 
BRANCH 109 112
ATOM    112  OH  TYR A   5      23.279  -6.590   3.395  1.00  0.00    -0.361 OA
ATOM    113  HH  TYR A   5      23.202  -7.505   3.117  1.00  0.00     0.217 HD
ENDBRANCH 109 112
ENDBRANCH 105 106
ENDBRANCH  60 105
ENDBRANCH   1  60
TORSDOF 38
ENDMDL
MODEL 6
REMARK VINA RESULT:      -3.0     29.612     37.979
REMARK WARNING: 32 MAX_TORS EXCEEDED!!!
REMARK  38 active torsions:
REMARK  status: ('A' for Active; 'I' for Inactive)
REMARK    1  A    between atoms: N_1  and  CA_2 
REMARK    2  A    between atoms: CA_2  and  CB_5 
REMARK    3  A    between atoms: CA_2  and  C_3 
REMARK       I    between atoms: C_3  and  N_17 
REMARK    4  A    between atoms: CB_5  and  CG_6 
REMARK    5  A    between atoms: CZ_10  and  OH_11 
REMARK    6  A    between atoms: N_17  and  CA_18 
REMARK    7  A    between atoms: CA_18  and  CB_21 
REMARK    8  A    between atoms: CA_18  and  C_19 
REMARK       I    between atoms: C_19  and  N_26 
REMARK    9  A    between atoms: CB_21  and  CG_22 
REMARK   10  A    between atoms: CA_27  and  C_28 
REMARK       I    between atoms: C_28  and  N_33 
REMARK   11  A    between atoms: N_33  and  CA_34 
REMARK   12  A    between atoms: CA_34  and  C_35 
REMARK   13  A    between atoms: CA_34  and  CB_37 
REMARK       I    between atoms: C_35  and  N_43 
REMARK   14  A    between atoms: CB_37  and  CG_38 
REMARK   15  A    between atoms: CG_38  and  CD_39 
REMARK   16  A    between atoms: N_43  and  CA_44 
REMARK   17  A    between atoms: CA_44  and  CB_47 
REMARK   18  A    between atoms: CA_44  and  C_45 
REMARK       I    between atoms: C_45  and  N_57 
REMARK   19  A    between atoms: CB_47  and  CG_48 
REMARK   20  A    between atoms: CZ_52  and  OH_53 
REMARK   21  A    between atoms: N_57  and  CA_58 
REMARK   22  A    between atoms: CA_58  and  CB_61 
REMARK   23  A    between atoms: CA_58  and  C_59 
REMARK       I    between atoms: C_59  and  N_74 
REMARK   24  A    between atoms: CB_61  and  CG_62 
REMARK   25  A    between atoms: CG_62  and  CD_63 
REMARK   26  A    between atoms: CD_63  and  NE_64 
REMARK       I    between atoms: NE_64  and  CZ_65 
REMARK       I    between atoms: CZ_65  and  NH2_66 
REMARK   27  A    between atoms: N_74  and  CA_75 
REMARK   28  A    between atoms: CA_75  and  CB_78 
REMARK   29  A    between atoms: CA_75  and  C_76 
REMARK       I    between atoms: C_76  and  N_85 
REMARK   30  A    between atoms: CB_78  and  CG_79 
REMARK       I    between atoms: CG_79  and  ND2_80 
REMARK   31  A    between atoms: N_85  and  CA_86 
REMARK   32  A    between atoms: CA_86  and  CB_89 
REMARK   33  A    between atoms: CA_86  and  C_87 
REMARK       I    between atoms: C_87  and  N_97 
REMARK   34  A    between atoms: CB_89  and  CG_90 
REMARK   35  A    between atoms: N_97  and  CA_98 
REMARK   36  A    between atoms: CA_98  and  C_99 
REMARK   37  A    between atoms: CA_98  and  CB_102 
REMARK   38  A    between atoms: CB_102  and  CG_103 
ROOT
ATOM      1  C   TYR A   5      10.822   3.598   6.728  1.00  0.00     0.241 C 
ATOM      2  O   TYR A   5       9.699   3.106   6.650  1.00  0.00    -0.271 OA
ATOM      3  N   ARG A   6      11.022   4.793   7.312  1.00  0.00    -0.346 N 
ATOM      4  H   ARG A   6      11.978   5.135   7.359  1.00  0.00     0.163 HD
ENDROOT
BRANCH   3   5
ATOM      5  CA  ARG A   6       9.948   5.595   7.938  1.00  0.00     0.176 C 
BRANCH   5   6
ATOM      6  CB  ARG A   6       9.808   5.173   9.416  1.00  0.00     0.036 C 
BRANCH   6   7
ATOM      7  CG  ARG A   6       8.597   4.247   9.672  1.00  0.00     0.023 C 
BRANCH   7   8
ATOM      8  CD  ARG A   6       7.330   4.672   8.913  1.00  0.00     0.138 C 
BRANCH   8   9
ATOM      9  NE  ARG A   6       6.131   3.944   9.382  1.00  0.00    -0.227 N 
ATOM     10  HE  ARG A   6       6.239   3.434  10.241  1.00  0.00     0.177 HD
ATOM     11  CZ  ARG A   6       4.911   3.972   8.868  1.00  0.00     0.665 C 
ATOM     12  NH2 ARG A   6       3.945   3.368   9.488  1.00  0.00    -0.235 N 
ATOM     13  NH1 ARG A   6       4.605   4.591   7.764  1.00  0.00    -0.235 N 
ATOM     14 1HH2 ARG A   6       4.086   3.143  10.454  1.00  0.00     0.174 HD
ATOM     15 2HH2 ARG A   6       3.009   3.667   9.268  1.00  0.00     0.174 HD
ATOM     16 1HH1 ARG A   6       5.265   5.242   7.378  1.00  0.00     0.174 HD
ATOM     17 2HH1 ARG A   6       3.651   4.622   7.455  1.00  0.00     0.174 HD
ENDBRANCH   8   9
ENDBRANCH   7   8
ENDBRANCH   6   7
ENDBRANCH   5   6
BRANCH   5  18
ATOM     18  C   ARG A   6      10.148   7.121   7.807  1.00  0.00     0.241 C 
ATOM     19  N   ASN A   7      10.433   7.849   8.896  1.00  0.00    -0.346 N 
ATOM     20  H   ASN A   7      10.620   7.366   9.765  1.00  0.00     0.163 HD
ATOM     21  O   ARG A   6       9.918   7.653   6.729  1.00  0.00    -0.271 OA
BRANCH  19  22
ATOM     22  CA  ASN A   7      10.731   9.293   8.816  1.00  0.00     0.185 C 
BRANCH  22  23
ATOM     23  CB  ASN A   7      11.847   9.572   7.791  1.00  0.00     0.137 C 
BRANCH  23  24
ATOM     24  CG  ASN A   7      13.268   9.205   8.167  1.00  0.00     0.217 C 
ATOM     25  ND2 ASN A   7      13.861   8.363   7.348  1.00  0.00    -0.370 N 
ATOM     26 2HD2 ASN A   7      13.306   7.852   6.665  1.00  0.00     0.159 HD
ATOM     27 1HD2 ASN A   7      14.820   8.148   7.516  1.00  0.00     0.159 HD
ATOM     28  OD1 ASN A   7      13.932   9.816   9.000  1.00  0.00    -0.274 OA
ENDBRANCH  23  24
ENDBRANCH  22  23
BRANCH  22  29
ATOM     29  C   ASN A   7       9.503  10.154   8.444  1.00  0.00     0.241 C 
ATOM     30  N   PHE A   8       9.725  11.326   7.828  1.00  0.00    -0.346 N 
ATOM     31  H   PHE A   8      10.686  11.617   7.687  1.00  0.00     0.163 HD
ATOM     32  O   ASN A   7       8.389   9.813   8.838  1.00  0.00    -0.271 OA
BRANCH  30  33
ATOM     33  CA  PHE A   8       8.663  12.208   7.322  1.00  0.00     0.180 C 
BRANCH  33  34
ATOM     34  CB  PHE A   8       8.141  13.035   8.517  1.00  0.00     0.073 C 
BRANCH  34  35
ATOM     35  CG  PHE A   8       6.629  13.146   8.598  1.00  0.00    -0.056 A 
ATOM     36  CD1 PHE A   8       5.819  12.041   8.271  1.00  0.00     0.007 A 
ATOM     37  CE1 PHE A   8       4.421  12.185   8.218  1.00  0.00     0.001 A 
ATOM     38  CZ  PHE A   8       3.830  13.431   8.494  1.00  0.00     0.000 A 
ATOM     39  CE2 PHE A   8       4.635  14.526   8.853  1.00  0.00     0.001 A 
ATOM     40  CD2 PHE A   8       6.032  14.382   8.912  1.00  0.00     0.007 A 
ENDBRANCH  34  35
ENDBRANCH  33  34
BRANCH  33  41
ATOM     41  C   PHE A   8       9.125  13.099   6.142  1.00  0.00     0.241 C 
ATOM     42  N   TRP A   9      10.289  12.777   5.557  1.00  0.00    -0.344 N 
ATOM     43  H   TRP A   9      10.776  11.969   5.915  1.00  0.00     0.163 HD
ATOM     44  O   PHE A   8       8.449  14.078   5.819  1.00  0.00    -0.271 OA
BRANCH  42  45
ATOM     45  CA  TRP A   9      10.971  13.510   4.477  1.00  0.00     0.190 C 
BRANCH  45  46
ATOM     46  C   TRP A   9      11.382  12.651   3.261  1.00  0.00     0.197 C 
ATOM     47  OXT TRP A   9      10.452  12.186   2.552  1.00  0.00    -0.646 OA
ATOM     48  O   TRP A   9      12.536  12.172   3.287  1.00  0.00    -0.646 OA
ENDBRANCH  45  46
BRANCH  45  49
ATOM     49  CB  TRP A   9      12.192  14.209   5.096  1.00  0.00     0.077 C 
BRANCH  49  50
ATOM     50  CG  TRP A   9      12.595  15.465   4.393  1.00  0.00    -0.028 A 
ATOM     51  CD1 TRP A   9      13.721  15.586   3.661  1.00  0.00     0.096 A 
ATOM     52  NE1 TRP A   9      13.731  16.800   3.009  1.00  0.00    -0.365 N 
ATOM     53  HE1 TRP A   9      14.377  17.000   2.265  1.00  0.00     0.165 HD
ATOM     54  CE2 TRP A   9      12.568  17.499   3.242  1.00  0.00     0.042 A 
ATOM     55  CD2 TRP A   9      11.817  16.671   4.128  1.00  0.00    -0.002 A 
ATOM     56  CZ2 TRP A   9      12.074  18.709   2.736  1.00  0.00     0.030 A 
ATOM     57  CE3 TRP A   9      10.523  17.119   4.478  1.00  0.00     0.014 A 
ATOM     58  CZ3 TRP A   9      10.008  18.325   3.962  1.00  0.00     0.001 A 
ATOM     59  CH2 TRP A   9      10.780  19.121   3.095  1.00  0.00     0.002 A 
ENDBRANCH  49  50
ENDBRANCH  45  49
ENDBRANCH  42  45
ENDBRANCH  33  41
ENDBRANCH  30  33
ENDBRANCH  22  29
ENDBRANCH  19  22
ENDBRANCH   5  18
ENDBRANCH   3   5
BRANCH   1  60
ATOM     60  CA  TYR A   5      11.959   2.981   5.895  1.00  0.00     0.180 C 
BRANCH  60  61
ATOM     61  N   TYR A   5      13.181   3.793   5.936  1.00  0.00    -0.346 N 
ATOM     62  H   TYR A   5      13.561   4.043   6.838  1.00  0.00     0.163 HD
ATOM     63  C   GLU A   4      13.747   4.304   4.831  1.00  0.00     0.241 C 
ATOM     64  O   GLU A   4      13.211   4.184   3.733  1.00  0.00    -0.271 OA
BRANCH  63  65
ATOM     65  CA  GLU A   4      14.892   5.310   5.020  1.00  0.00     0.177 C 
BRANCH  65  66
ATOM     66  N   GLU A   4      15.895   4.802   5.973  1.00  0.00    -0.346 N 
ATOM     67  H   GLU A   4      16.458   4.019   5.666  1.00  0.00     0.163 HD
ATOM     68  C   PRO A   3      15.929   5.090   7.278  1.00  0.00     0.241 C 
ATOM     69  O   PRO A   3      15.148   5.863   7.808  1.00  0.00    -0.271 OA
BRANCH  68  70
ATOM     70  CA  PRO A   3      17.016   4.435   8.141  1.00  0.00     0.179 C 
ATOM     71  N   PRO A   3      17.230   2.985   7.943  1.00  0.00    -0.337 N 
ATOM     72  CD  PRO A   3      18.650   2.748   7.692  1.00  0.00     0.127 C 
ATOM     73  C   ASP A   2      16.279   2.053   8.217  1.00  0.00     0.243 C 
ATOM     74  CG  PRO A   3      19.369   3.991   8.212  1.00  0.00     0.022 C 
ATOM     75  CB  PRO A   3      18.376   5.100   7.881  1.00  0.00     0.037 C 
ATOM     76  O   ASP A   2      15.130   2.443   8.438  1.00  0.00    -0.271 OA
BRANCH  73  77
ATOM     77  CA  ASP A   2      16.448   0.548   7.807  1.00  0.00     0.186 C 
BRANCH  77  78
ATOM     78  CB  ASP A   2      17.292  -0.298   8.774  1.00  0.00     0.147 C 
BRANCH  78  79
ATOM     79  CG  ASP A   2      17.656  -1.640   8.161  1.00  0.00     0.175 C 
ATOM     80  OD2 ASP A   2      18.805  -2.052   8.449  1.00  0.00    -0.648 OA
ATOM     81  OD1 ASP A   2      16.714  -2.320   7.738  1.00  0.00    -0.648 OA
ENDBRANCH  78  79
ENDBRANCH  77  78
BRANCH  77  82
ATOM     82  N   ASP A   2      16.934   0.265   6.432  1.00  0.00    -0.345 N 
ATOM     83  H   ASP A   2      17.528  -0.548   6.373  1.00  0.00     0.163 HD
ATOM     84  C   TYR A   1      16.349   0.742   5.320  1.00  0.00     0.249 C 
ATOM     85  O   TYR A   1      15.535   1.634   5.353  1.00  0.00    -0.271 OA
BRANCH  84  86
ATOM     86  CA  TYR A   1      16.927   0.451   3.951  1.00  0.00     0.278 C 
BRANCH  86  87
ATOM     87  N   TYR A   1      16.856   1.632   3.075  1.00  0.00    -0.066 N 
ATOM     88  H2  TYR A   1      17.156   1.394   2.141  1.00  0.00     0.275 HD
ATOM     89  H1  TYR A   1      17.455   2.356   3.448  1.00  0.00     0.275 HD
ATOM     90  H3  TYR A   1      15.901   1.970   3.044  1.00  0.00     0.275 HD
ENDBRANCH  86  87
BRANCH  86  91
ATOM     91  CB  TYR A   1      18.305  -0.211   3.957  1.00  0.00     0.081 C 
BRANCH  91  92
ATOM     92  CG  TYR A   1      18.215  -1.716   4.142  1.00  0.00    -0.056 A 
ATOM     93  CD2 TYR A   1      17.130  -2.419   3.570  1.00  0.00     0.010 A 
ATOM     94  CE2 TYR A   1      17.016  -3.808   3.756  1.00  0.00     0.037 A 
ATOM     95  CZ  TYR A   1      17.992  -4.503   4.505  1.00  0.00     0.065 A 
ATOM     96  CE1 TYR A   1      19.092  -3.809   5.044  1.00  0.00     0.037 A 
ATOM     97  CD1 TYR A   1      19.212  -2.413   4.865  1.00  0.00     0.010 A 
BRANCH  95  98
ATOM     98  OH  TYR A   1      17.881  -5.837   4.703  1.00  0.00    -0.361 OA
ATOM     99  HH  TYR A   1      18.722  -6.233   4.932  1.00  0.00     0.217 HD
ENDBRANCH  95  98
ENDBRANCH  91  92
ENDBRANCH  86  91
ENDBRANCH  84  86
ENDBRANCH  77  82
ENDBRANCH  73  77
ENDBRANCH  68  70
ENDBRANCH  65  66
BRANCH  65 100
ATOM    100  CB  GLU A   4      15.585   5.621   3.676  1.00  0.00     0.045 C 
BRANCH 100 101
ATOM    101  CG  GLU A   4      15.704   7.112   3.321  1.00  0.00     0.116 C 
BRANCH 101 102
ATOM    102  CD  GLU A   4      16.717   7.834   4.227  1.00  0.00     0.172 C 
ATOM    103  OE2 GLU A   4      17.898   7.863   3.815  1.00  0.00    -0.648 OA
ATOM    104  OE1 GLU A   4      16.380   8.017   5.424  1.00  0.00    -0.648 OA
ENDBRANCH 101 102
ENDBRANCH 100 101
ENDBRANCH  65 100
ENDBRANCH  63  65
ENDBRANCH  60  61
BRANCH  60 105
ATOM    105  CB  TYR A   5      12.259   1.532   6.324  1.00  0.00     0.073 C 
BRANCH 105 106
ATOM    106  CG  TYR A   5      12.121   0.464   5.243  1.00  0.00    -0.056 A 
ATOM    107  CD1 TYR A   5      12.898  -0.718   5.291  1.00  0.00     0.010 A 
ATOM    108  CE1 TYR A   5      12.646  -1.766   4.373  1.00  0.00     0.037 A 
ATOM    109  CZ  TYR A   5      11.632  -1.627   3.408  1.00  0.00     0.065 A 
ATOM    110  CE2 TYR A   5      10.877  -0.436   3.339  1.00  0.00     0.037 A 
ATOM    111  CD2 TYR A   5      11.115   0.602   4.259  1.00  0.00     0.010 A 
BRANCH 109 112
ATOM    112  OH  TYR A   5      11.371  -2.638   2.548  1.00  0.00    -0.361 OA
ATOM    113  HH  TYR A   5      12.040  -2.652   1.859  1.00  0.00     0.217 HD
ENDBRANCH 109 112
ENDBRANCH 105 106
ENDBRANCH  60 105
ENDBRANCH   1  60
TORSDOF 38
ENDMDL
MODEL 7
REMARK VINA RESULT:      -3.0     28.978     37.919
REMARK WARNING: 32 MAX_TORS EXCEEDED!!!
REMARK  38 active torsions:
REMARK  status: ('A' for Active; 'I' for Inactive)
REMARK    1  A    between atoms: N_1  and  CA_2 
REMARK    2  A    between atoms: CA_2  and  CB_5 
REMARK    3  A    between atoms: CA_2  and  C_3 
REMARK       I    between atoms: C_3  and  N_17 
REMARK    4  A    between atoms: CB_5  and  CG_6 
REMARK    5  A    between atoms: CZ_10  and  OH_11 
REMARK    6  A    between atoms: N_17  and  CA_18 
REMARK    7  A    between atoms: CA_18  and  CB_21 
REMARK    8  A    between atoms: CA_18  and  C_19 
REMARK       I    between atoms: C_19  and  N_26 
REMARK    9  A    between atoms: CB_21  and  CG_22 
REMARK   10  A    between atoms: CA_27  and  C_28 
REMARK       I    between atoms: C_28  and  N_33 
REMARK   11  A    between atoms: N_33  and  CA_34 
REMARK   12  A    between atoms: CA_34  and  C_35 
REMARK   13  A    between atoms: CA_34  and  CB_37 
REMARK       I    between atoms: C_35  and  N_43 
REMARK   14  A    between atoms: CB_37  and  CG_38 
REMARK   15  A    between atoms: CG_38  and  CD_39 
REMARK   16  A    between atoms: N_43  and  CA_44 
REMARK   17  A    between atoms: CA_44  and  CB_47 
REMARK   18  A    between atoms: CA_44  and  C_45 
REMARK       I    between atoms: C_45  and  N_57 
REMARK   19  A    between atoms: CB_47  and  CG_48 
REMARK   20  A    between atoms: CZ_52  and  OH_53 
REMARK   21  A    between atoms: N_57  and  CA_58 
REMARK   22  A    between atoms: CA_58  and  CB_61 
REMARK   23  A    between atoms: CA_58  and  C_59 
REMARK       I    between atoms: C_59  and  N_74 
REMARK   24  A    between atoms: CB_61  and  CG_62 
REMARK   25  A    between atoms: CG_62  and  CD_63 
REMARK   26  A    between atoms: CD_63  and  NE_64 
REMARK       I    between atoms: NE_64  and  CZ_65 
REMARK       I    between atoms: CZ_65  and  NH2_66 
REMARK   27  A    between atoms: N_74  and  CA_75 
REMARK   28  A    between atoms: CA_75  and  CB_78 
REMARK   29  A    between atoms: CA_75  and  C_76 
REMARK       I    between atoms: C_76  and  N_85 
REMARK   30  A    between atoms: CB_78  and  CG_79 
REMARK       I    between atoms: CG_79  and  ND2_80 
REMARK   31  A    between atoms: N_85  and  CA_86 
REMARK   32  A    between atoms: CA_86  and  CB_89 
REMARK   33  A    between atoms: CA_86  and  C_87 
REMARK       I    between atoms: C_87  and  N_97 
REMARK   34  A    between atoms: CB_89  and  CG_90 
REMARK   35  A    between atoms: N_97  and  CA_98 
REMARK   36  A    between atoms: CA_98  and  C_99 
REMARK   37  A    between atoms: CA_98  and  CB_102 
REMARK   38  A    between atoms: CB_102  and  CG_103 
ROOT
ATOM      1  C   TYR A   5      10.820   6.030   7.858  1.00  0.00     0.241 C 
ATOM      2  O   TYR A   5      11.737   6.502   8.527  1.00  0.00    -0.271 OA
ATOM      3  N   ARG A   6      10.078   6.804   7.046  1.00  0.00    -0.346 N 
ATOM      4  H   ARG A   6       9.346   6.348   6.507  1.00  0.00     0.163 HD
ENDROOT
BRANCH   3   5
ATOM      5  CA  ARG A   6      10.309   8.252   6.850  1.00  0.00     0.176 C 
BRANCH   5   6
ATOM      6  CB  ARG A   6      10.506   8.917   8.227  1.00  0.00     0.036 C 
BRANCH   6   7
ATOM      7  CG  ARG A   6      10.733  10.444   8.139  1.00  0.00     0.023 C 
BRANCH   7   8
ATOM      8  CD  ARG A   6       9.619  11.186   7.385  1.00  0.00     0.138 C 
BRANCH   8   9
ATOM      9  NE  ARG A   6       9.459  12.578   7.860  1.00  0.00    -0.227 N 
ATOM     10  HE  ARG A   6      10.173  12.910   8.483  1.00  0.00     0.177 HD
ATOM     11  CZ  ARG A   6       8.555  13.467   7.479  1.00  0.00     0.665 C 
ATOM     12  NH2 ARG A   6       8.642  14.688   7.908  1.00  0.00    -0.235 N 
ATOM     13  NH1 ARG A   6       7.568  13.196   6.673  1.00  0.00    -0.235 N 
ATOM     14 1HH2 ARG A   6       9.524  14.985   8.279  1.00  0.00     0.174 HD
ATOM     15 2HH2 ARG A   6       8.164  15.392   7.371  1.00  0.00     0.174 HD
ATOM     16 1HH1 ARG A   6       7.592  12.337   6.154  1.00  0.00     0.174 HD
ATOM     17 2HH1 ARG A   6       6.948  13.927   6.377  1.00  0.00     0.174 HD
ENDBRANCH   8   9
ENDBRANCH   7   8
ENDBRANCH   6   7
ENDBRANCH   5   6
BRANCH   5  18
ATOM     18  C   ARG A   6      11.482   8.577   5.898  1.00  0.00     0.241 C 
ATOM     19  N   ASN A   7      12.700   8.078   6.152  1.00  0.00    -0.346 N 
ATOM     20  H   ASN A   7      12.801   7.409   6.904  1.00  0.00     0.163 HD
ATOM     21  O   ARG A   6      11.300   9.386   4.997  1.00  0.00    -0.271 OA
BRANCH  19  22
ATOM     22  CA  ASN A   7      13.833   8.273   5.226  1.00  0.00     0.185 C 
BRANCH  22  23
ATOM     23  CB  ASN A   7      13.585   7.552   3.887  1.00  0.00     0.137 C 
BRANCH  23  24
ATOM     24  CG  ASN A   7      14.489   6.391   3.524  1.00  0.00     0.217 C 
ATOM     25  ND2 ASN A   7      13.978   5.199   3.742  1.00  0.00    -0.370 N 
ATOM     26 2HD2 ASN A   7      13.141   5.108   4.315  1.00  0.00     0.159 HD
ATOM     27 1HD2 ASN A   7      14.508   4.405   3.452  1.00  0.00     0.159 HD
ATOM     28  OD1 ASN A   7      15.504   6.506   2.842  1.00  0.00    -0.274 OA
ENDBRANCH  23  24
ENDBRANCH  22  23
BRANCH  22  29
ATOM     29  C   ASN A   7      14.137   9.759   4.929  1.00  0.00     0.241 C 
ATOM     30  N   PHE A   8      14.067  10.627   5.949  1.00  0.00    -0.346 N 
ATOM     31  H   PHE A   8      13.764  10.280   6.853  1.00  0.00     0.163 HD
ATOM     32  O   ASN A   7      14.297  10.117   3.763  1.00  0.00    -0.271 OA
BRANCH  30  33
ATOM     33  CA  PHE A   8      14.424  12.051   5.850  1.00  0.00     0.180 C 
BRANCH  33  34
ATOM     34  CB  PHE A   8      13.451  12.835   6.755  1.00  0.00     0.073 C 
BRANCH  34  35
ATOM     35  CG  PHE A   8      12.468  13.722   6.010  1.00  0.00    -0.056 A 
ATOM     36  CD1 PHE A   8      12.302  15.068   6.388  1.00  0.00     0.007 A 
ATOM     37  CE1 PHE A   8      11.298  15.849   5.786  1.00  0.00     0.001 A 
ATOM     38  CZ  PHE A   8      10.463  15.287   4.805  1.00  0.00     0.000 A 
ATOM     39  CE2 PHE A   8      10.650  13.953   4.403  1.00  0.00     0.001 A 
ATOM     40  CD2 PHE A   8      11.656  13.174   5.000  1.00  0.00     0.007 A 
ENDBRANCH  34  35
ENDBRANCH  33  34
BRANCH  33  41
ATOM     41  C   PHE A   8      15.909  12.330   6.194  1.00  0.00     0.241 C 
ATOM     42  N   TRP A   9      16.347  13.586   6.020  1.00  0.00    -0.344 N 
ATOM     43  H   TRP A   9      15.678  14.266   5.693  1.00  0.00     0.163 HD
ATOM     44  O   PHE A   8      16.633  11.401   6.558  1.00  0.00    -0.271 OA
BRANCH  42  45
ATOM     45  CA  TRP A   9      17.724  14.078   6.202  1.00  0.00     0.190 C 
BRANCH  45  46
ATOM     46  C   TRP A   9      18.085  14.490   7.646  1.00  0.00     0.197 C 
ATOM     47  OXT TRP A   9      19.226  14.161   8.064  1.00  0.00    -0.646 OA
ATOM     48  O   TRP A   9      17.126  14.763   8.399  1.00  0.00    -0.646 OA
ENDBRANCH  45  46
BRANCH  45  49
ATOM     49  CB  TRP A   9      17.927  15.248   5.227  1.00  0.00     0.077 C 
BRANCH  49  50
ATOM     50  CG  TRP A   9      16.793  16.221   5.201  1.00  0.00    -0.028 A 
ATOM     51  CD1 TRP A   9      16.827  17.429   5.801  1.00  0.00     0.096 A 
ATOM     52  NE1 TRP A   9      15.706  18.155   5.462  1.00  0.00    -0.365 N 
ATOM     53  HE1 TRP A   9      15.636  19.142   5.640  1.00  0.00     0.165 HD
ATOM     54  CE2 TRP A   9      14.919  17.466   4.566  1.00  0.00     0.042 A 
ATOM     55  CD2 TRP A   9      15.587  16.220   4.378  1.00  0.00    -0.002 A 
ATOM     56  CZ2 TRP A   9      13.755  17.814   3.866  1.00  0.00     0.030 A 
ATOM     57  CE3 TRP A   9      15.027  15.331   3.433  1.00  0.00     0.014 A 
ATOM     58  CZ3 TRP A   9      13.868  15.677   2.710  1.00  0.00     0.001 A 
ATOM     59  CH2 TRP A   9      13.231  16.913   2.925  1.00  0.00     0.002 A 
ENDBRANCH  49  50
ENDBRANCH  45  49
ENDBRANCH  42  45
ENDBRANCH  33  41
ENDBRANCH  30  33
ENDBRANCH  22  29
ENDBRANCH  19  22
ENDBRANCH   5  18
ENDBRANCH   3   5
BRANCH   1  60
ATOM     60  CA  TYR A   5      10.332   4.605   8.173  1.00  0.00     0.180 C 
BRANCH  60  61
ATOM     61  N   TYR A   5      10.558   3.682   7.055  1.00  0.00    -0.346 N 
ATOM     62  H   TYR A   5       9.964   2.869   6.975  1.00  0.00     0.163 HD
ATOM     63  C   GLU A   4      11.587   3.818   6.201  1.00  0.00     0.241 C 
ATOM     64  O   GLU A   4      12.441   4.682   6.375  1.00  0.00    -0.271 OA
BRANCH  63  65
ATOM     65  CA  GLU A   4      11.841   2.675   5.209  1.00  0.00     0.177 C 
BRANCH  65  66
ATOM     66  N   GLU A   4      12.899   1.772   5.695  1.00  0.00    -0.346 N 
ATOM     67  H   GLU A   4      12.768   1.372   6.616  1.00  0.00     0.163 HD
ATOM     68  C   PRO A   3      14.122   1.666   5.165  1.00  0.00     0.241 C 
ATOM     69  O   PRO A   3      14.469   2.279   4.170  1.00  0.00    -0.271 OA
BRANCH  68  70
ATOM     70  CA  PRO A   3      15.123   0.709   5.827  1.00  0.00     0.179 C 
ATOM     71  N   PRO A   3      15.444  -0.528   5.083  1.00  0.00    -0.337 N 
ATOM     72  CD  PRO A   3      16.895  -0.642   4.961  1.00  0.00     0.127 C 
ATOM     73  C   ASP A   2      14.520  -1.487   4.811  1.00  0.00     0.243 C 
ATOM     74  CG  PRO A   3      17.468   0.271   6.044  1.00  0.00     0.022 C 
ATOM     75  CB  PRO A   3      16.465   1.420   6.060  1.00  0.00     0.037 C 
ATOM     76  O   ASP A   2      13.331  -1.221   5.007  1.00  0.00    -0.271 OA
BRANCH  73  77
ATOM     77  CA  ASP A   2      14.826  -2.687   3.847  1.00  0.00     0.186 C 
BRANCH  77  78
ATOM     78  CB  ASP A   2      13.716  -3.004   2.831  1.00  0.00     0.147 C 
BRANCH  78  79
ATOM     79  CG  ASP A   2      12.854  -4.164   3.299  1.00  0.00     0.175 C 
ATOM     80  OD2 ASP A   2      11.702  -3.841   3.672  1.00  0.00    -0.648 OA
ATOM     81  OD1 ASP A   2      13.232  -5.293   2.965  1.00  0.00    -0.648 OA
ENDBRANCH  78  79
ENDBRANCH  77  78
BRANCH  77  82
ATOM     82  N   ASP A   2      15.239  -3.972   4.466  1.00  0.00    -0.345 N 
ATOM     83  H   ASP A   2      14.466  -4.582   4.685  1.00  0.00     0.163 HD
ATOM     84  C   TYR A   1      16.480  -4.480   4.377  1.00  0.00     0.249 C 
ATOM     85  O   TYR A   1      17.420  -3.820   4.000  1.00  0.00    -0.271 OA
BRANCH  84  86
ATOM     86  CA  TYR A   1      16.843  -5.774   5.074  1.00  0.00     0.278 C 
BRANCH  86  87
ATOM     87  N   TYR A   1      18.236  -6.163   4.797  1.00  0.00    -0.066 N 
ATOM     88  H2  TYR A   1      18.757  -6.239   5.658  1.00  0.00     0.275 HD
ATOM     89  H1  TYR A   1      18.662  -5.462   4.205  1.00  0.00     0.275 HD
ATOM     90  H3  TYR A   1      18.246  -7.057   4.319  1.00  0.00     0.275 HD
ENDBRANCH  86  87
BRANCH  86  91
ATOM     91  CB  TYR A   1      16.488  -5.831   6.560  1.00  0.00     0.081 C 
BRANCH  91  92
ATOM     92  CG  TYR A   1      15.826  -7.144   6.939  1.00  0.00    -0.056 A 
ATOM     93  CD2 TYR A   1      15.156  -7.893   5.945  1.00  0.00     0.010 A 
ATOM     94  CE2 TYR A   1      14.513  -9.097   6.285  1.00  0.00     0.037 A 
ATOM     95  CZ  TYR A   1      14.548  -9.564   7.618  1.00  0.00     0.065 A 
ATOM     96  CE1 TYR A   1      15.246  -8.837   8.602  1.00  0.00     0.037 A 
ATOM     97  CD1 TYR A   1      15.891  -7.625   8.268  1.00  0.00     0.010 A 
BRANCH  95  98
ATOM     98  OH  TYR A   1      13.918 -10.712   7.958  1.00  0.00    -0.361 OA
ATOM     99  HH  TYR A   1      13.823 -10.798   8.907  1.00  0.00     0.217 HD
ENDBRANCH  95  98
ENDBRANCH  91  92
ENDBRANCH  86  91
ENDBRANCH  84  86
ENDBRANCH  77  82
ENDBRANCH  73  77
ENDBRANCH  68  70
ENDBRANCH  65  66
BRANCH  65 100
ATOM    100  CB  GLU A   4      10.554   1.857   4.963  1.00  0.00     0.045 C 
BRANCH 100 101
ATOM    101  CG  GLU A   4      10.728   0.585   4.116  1.00  0.00     0.116 C 
BRANCH 101 102
ATOM    102  CD  GLU A   4       9.521  -0.358   4.251  1.00  0.00     0.172 C 
ATOM    103  OE2 GLU A   4       8.711  -0.352   3.297  1.00  0.00    -0.648 OA
ATOM    104  OE1 GLU A   4       9.252  -0.777   5.405  1.00  0.00    -0.648 OA
ENDBRANCH 101 102
ENDBRANCH 100 101
ENDBRANCH  65 100
ENDBRANCH  63  65
ENDBRANCH  60  61
BRANCH  60 105
ATOM    105  CB  TYR A   5      10.968   4.056   9.464  1.00  0.00     0.073 C 
BRANCH 105 106
ATOM    106  CG  TYR A   5      11.263   2.560   9.489  1.00  0.00    -0.056 A 
ATOM    107  CD1 TYR A   5      10.211   1.617   9.578  1.00  0.00     0.010 A 
ATOM    108  CE1 TYR A   5      10.487   0.235   9.440  1.00  0.00     0.037 A 
ATOM    109  CZ  TYR A   5      11.808  -0.200   9.227  1.00  0.00     0.065 A 
ATOM    110  CE2 TYR A   5      12.863   0.736   9.169  1.00  0.00     0.037 A 
ATOM    111  CD2 TYR A   5      12.590   2.112   9.291  1.00  0.00     0.010 A 
BRANCH 109 112
ATOM    112  OH  TYR A   5      12.071  -1.518   9.068  1.00  0.00    -0.361 OA
ATOM    113  HH  TYR A   5      11.287  -1.961   8.736  1.00  0.00     0.217 HD
ENDBRANCH 109 112
ENDBRANCH 105 106
ENDBRANCH  60 105
ENDBRANCH   1  60
TORSDOF 38
ENDMDL
MODEL 8
REMARK VINA RESULT:      -3.0      8.467     15.973
REMARK WARNING: 32 MAX_TORS EXCEEDED!!!
REMARK  38 active torsions:
REMARK  status: ('A' for Active; 'I' for Inactive)
REMARK    1  A    between atoms: N_1  and  CA_2 
REMARK    2  A    between atoms: CA_2  and  CB_5 
REMARK    3  A    between atoms: CA_2  and  C_3 
REMARK       I    between atoms: C_3  and  N_17 
REMARK    4  A    between atoms: CB_5  and  CG_6 
REMARK    5  A    between atoms: CZ_10  and  OH_11 
REMARK    6  A    between atoms: N_17  and  CA_18 
REMARK    7  A    between atoms: CA_18  and  CB_21 
REMARK    8  A    between atoms: CA_18  and  C_19 
REMARK       I    between atoms: C_19  and  N_26 
REMARK    9  A    between atoms: CB_21  and  CG_22 
REMARK   10  A    between atoms: CA_27  and  C_28 
REMARK       I    between atoms: C_28  and  N_33 
REMARK   11  A    between atoms: N_33  and  CA_34 
REMARK   12  A    between atoms: CA_34  and  C_35 
REMARK   13  A    between atoms: CA_34  and  CB_37 
REMARK       I    between atoms: C_35  and  N_43 
REMARK   14  A    between atoms: CB_37  and  CG_38 
REMARK   15  A    between atoms: CG_38  and  CD_39 
REMARK   16  A    between atoms: N_43  and  CA_44 
REMARK   17  A    between atoms: CA_44  and  CB_47 
REMARK   18  A    between atoms: CA_44  and  C_45 
REMARK       I    between atoms: C_45  and  N_57 
REMARK   19  A    between atoms: CB_47  and  CG_48 
REMARK   20  A    between atoms: CZ_52  and  OH_53 
REMARK   21  A    between atoms: N_57  and  CA_58 
REMARK   22  A    between atoms: CA_58  and  CB_61 
REMARK   23  A    between atoms: CA_58  and  C_59 
REMARK       I    between atoms: C_59  and  N_74 
REMARK   24  A    between atoms: CB_61  and  CG_62 
REMARK   25  A    between atoms: CG_62  and  CD_63 
REMARK   26  A    between atoms: CD_63  and  NE_64 
REMARK       I    between atoms: NE_64  and  CZ_65 
REMARK       I    between atoms: CZ_65  and  NH2_66 
REMARK   27  A    between atoms: N_74  and  CA_75 
REMARK   28  A    between atoms: CA_75  and  CB_78 
REMARK   29  A    between atoms: CA_75  and  C_76 
REMARK       I    between atoms: C_76  and  N_85 
REMARK   30  A    between atoms: CB_78  and  CG_79 
REMARK       I    between atoms: CG_79  and  ND2_80 
REMARK   31  A    between atoms: N_85  and  CA_86 
REMARK   32  A    between atoms: CA_86  and  CB_89 
REMARK   33  A    between atoms: CA_86  and  C_87 
REMARK       I    between atoms: C_87  and  N_97 
REMARK   34  A    between atoms: CB_89  and  CG_90 
REMARK   35  A    between atoms: N_97  and  CA_98 
REMARK   36  A    between atoms: CA_98  and  C_99 
REMARK   37  A    between atoms: CA_98  and  CB_102 
REMARK   38  A    between atoms: CB_102  and  CG_103 
ROOT
ATOM      1  C   TYR A   5      -1.835 -22.973   8.148  1.00  0.00     0.241 C 
ATOM      2  O   TYR A   5      -2.821 -23.625   8.482  1.00  0.00    -0.271 OA
ATOM      3  N   ARG A   6      -1.932 -21.669   7.836  1.00  0.00    -0.346 N 
ATOM      4  H   ARG A   6      -1.075 -21.182   7.585  1.00  0.00     0.163 HD
ENDROOT
BRANCH   3   5
ATOM      5  CA  ARG A   6      -3.194 -20.898   7.900  1.00  0.00     0.176 C 
BRANCH   5   6
ATOM      6  CB  ARG A   6      -2.869 -19.442   8.291  1.00  0.00     0.036 C 
BRANCH   6   7
ATOM      7  CG  ARG A   6      -3.462 -19.032   9.660  1.00  0.00     0.023 C 
BRANCH   7   8
ATOM      8  CD  ARG A   6      -4.555 -17.957   9.556  1.00  0.00     0.138 C 
BRANCH   8   9
ATOM      9  NE  ARG A   6      -5.381 -18.121   8.339  1.00  0.00    -0.227 N 
ATOM     10  HE  ARG A   6      -4.983 -17.758   7.492  1.00  0.00     0.177 HD
ATOM     11  CZ  ARG A   6      -6.523 -18.779   8.216  1.00  0.00     0.665 C 
ATOM     12  NH2 ARG A   6      -7.048 -18.928   7.039  1.00  0.00    -0.235 N 
ATOM     13  NH1 ARG A   6      -7.164 -19.312   9.217  1.00  0.00    -0.235 N 
ATOM     14 1HH2 ARG A   6      -6.450 -18.791   6.247  1.00  0.00     0.174 HD
ATOM     15 2HH2 ARG A   6      -7.709 -19.680   6.930  1.00  0.00     0.174 HD
ATOM     16 1HH1 ARG A   6      -6.688 -19.408  10.097  1.00  0.00     0.174 HD
ATOM     17 2HH1 ARG A   6      -7.996 -19.847   9.052  1.00  0.00     0.174 HD
ENDBRANCH   8   9
ENDBRANCH   7   8
ENDBRANCH   6   7
ENDBRANCH   5   6
BRANCH   5  18
ATOM     18  C   ARG A   6      -4.031 -20.957   6.603  1.00  0.00     0.241 C 
ATOM     19  N   ASN A   7      -4.434 -22.143   6.126  1.00  0.00    -0.346 N 
ATOM     20  H   ASN A   7      -4.272 -22.970   6.688  1.00  0.00     0.163 HD
ATOM     21  O   ARG A   6      -4.205 -19.924   5.969  1.00  0.00    -0.271 OA
BRANCH  19  22
ATOM     22  CA  ASN A   7      -5.316 -22.254   4.949  1.00  0.00     0.185 C 
BRANCH  22  23
ATOM     23  CB  ASN A   7      -4.861 -23.397   4.020  1.00  0.00     0.137 C 
BRANCH  23  24
ATOM     24  CG  ASN A   7      -3.598 -24.151   4.385  1.00  0.00     0.217 C 
ATOM     25  ND2 ASN A   7      -2.549 -23.873   3.642  1.00  0.00    -0.370 N 
ATOM     26 2HD2 ASN A   7      -2.673 -23.365   2.768  1.00  0.00     0.159 HD
ATOM     27 1HD2 ASN A   7      -1.678 -24.292   3.890  1.00  0.00     0.159 HD
ATOM     28  OD1 ASN A   7      -3.456 -24.772   5.435  1.00  0.00    -0.274 OA
ENDBRANCH  23  24
ENDBRANCH  22  23
BRANCH  22  29
ATOM     29  C   ASN A   7      -6.800 -22.485   5.311  1.00  0.00     0.241 C 
ATOM     30  N   PHE A   8      -7.534 -23.250   4.488  1.00  0.00    -0.346 N 
ATOM     31  H   PHE A   8      -7.098 -23.592   3.638  1.00  0.00     0.163 HD
ATOM     32  O   ASN A   7      -7.293 -21.863   6.251  1.00  0.00    -0.271 OA
BRANCH  30  33
ATOM     33  CA  PHE A   8      -8.927 -23.645   4.746  1.00  0.00     0.180 C 
BRANCH  33  34
ATOM     34  CB  PHE A   8      -9.830 -22.751   3.869  1.00  0.00     0.073 C 
BRANCH  34  35
ATOM     35  CG  PHE A   8     -10.813 -21.891   4.644  1.00  0.00    -0.056 A 
ATOM     36  CD1 PHE A   8     -12.116 -22.360   4.900  1.00  0.00     0.007 A 
ATOM     37  CE1 PHE A   8     -13.065 -21.512   5.499  1.00  0.00     0.001 A 
ATOM     38  CZ  PHE A   8     -12.712 -20.196   5.847  1.00  0.00     0.000 A 
ATOM     39  CE2 PHE A   8     -11.402 -19.737   5.623  1.00  0.00     0.001 A 
ATOM     40  CD2 PHE A   8     -10.452 -20.586   5.029  1.00  0.00     0.007 A 
ENDBRANCH  34  35
ENDBRANCH  33  34
BRANCH  33  41
ATOM     41  C   PHE A   8      -9.183 -25.155   4.514  1.00  0.00     0.241 C 
ATOM     42  N   TRP A   9     -10.042 -25.761   5.348  1.00  0.00    -0.344 N 
ATOM     43  H   TRP A   9     -10.474 -25.190   6.058  1.00  0.00     0.163 HD
ATOM     44  O   PHE A   8      -8.566 -25.746   3.625  1.00  0.00    -0.271 OA
BRANCH  42  45
ATOM     45  CA  TRP A   9     -10.387 -27.193   5.379  1.00  0.00     0.190 C 
BRANCH  45  46
ATOM     46  C   TRP A   9     -11.863 -27.516   5.062  1.00  0.00     0.197 C 
ATOM     47  OXT TRP A   9     -12.707 -26.611   5.291  1.00  0.00    -0.646 OA
ATOM     48  O   TRP A   9     -12.157 -28.728   4.976  1.00  0.00    -0.646 OA
ENDBRANCH  45  46
BRANCH  45  49
ATOM     49  CB  TRP A   9      -9.987 -27.731   6.761  1.00  0.00     0.077 C 
BRANCH  49  50
ATOM     50  CG  TRP A   9      -8.830 -28.677   6.734  1.00  0.00    -0.028 A 
ATOM     51  CD1 TRP A   9      -7.622 -28.400   7.265  1.00  0.00     0.096 A 
ATOM     52  NE1 TRP A   9      -6.823 -29.523   7.230  1.00  0.00    -0.365 N 
ATOM     53  HE1 TRP A   9      -5.966 -29.583   7.751  1.00  0.00     0.165 HD
ATOM     54  CE2 TRP A   9      -7.510 -30.607   6.728  1.00  0.00     0.042 A 
ATOM     55  CD2 TRP A   9      -8.801 -30.098   6.399  1.00  0.00    -0.002 A 
ATOM     56  CZ2 TRP A   9      -7.171 -31.959   6.588  1.00  0.00     0.030 A 
ATOM     57  CE3 TRP A   9      -9.752 -31.029   5.924  1.00  0.00     0.014 A 
ATOM     58  CZ3 TRP A   9      -9.430 -32.395   5.797  1.00  0.00     0.001 A 
ATOM     59  CH2 TRP A   9      -8.143 -32.861   6.125  1.00  0.00     0.002 A 
ENDBRANCH  49  50
ENDBRANCH  45  49
ENDBRANCH  42  45
ENDBRANCH  33  41
ENDBRANCH  30  33
ENDBRANCH  22  29
ENDBRANCH  19  22
ENDBRANCH   5  18
ENDBRANCH   3   5
BRANCH   1  60
ATOM     60  CA  TYR A   5      -0.535 -23.722   7.804  1.00  0.00     0.180 C 
BRANCH  60  61
ATOM     61  N   TYR A   5      -0.789 -24.964   7.066  1.00  0.00    -0.346 N 
ATOM     62  H   TYR A   5      -1.063 -24.901   6.096  1.00  0.00     0.163 HD
ATOM     63  C   GLU A   4      -0.777 -26.171   7.657  1.00  0.00     0.241 C 
ATOM     64  O   GLU A   4      -0.635 -26.278   8.871  1.00  0.00    -0.271 OA
BRANCH  63  65
ATOM     65  CA  GLU A   4      -1.267 -27.370   6.832  1.00  0.00     0.177 C 
BRANCH  65  66
ATOM     66  N   GLU A   4      -0.245 -27.804   5.863  1.00  0.00    -0.346 N 
ATOM     67  H   GLU A   4       0.536 -28.332   6.231  1.00  0.00     0.163 HD
ATOM     68  C   PRO A   3      -0.112 -27.326   4.621  1.00  0.00     0.241 C 
ATOM     69  O   PRO A   3      -0.877 -26.507   4.140  1.00  0.00    -0.271 OA
BRANCH  68  70
ATOM     70  CA  PRO A   3       1.041 -27.853   3.756  1.00  0.00     0.179 C 
ATOM     71  N   PRO A   3       2.295 -28.189   4.465  1.00  0.00    -0.337 N 
ATOM     72  CD  PRO A   3       2.690 -29.549   4.107  1.00  0.00     0.127 C 
ATOM     73  C   ASP A   2       3.046 -27.263   5.118  1.00  0.00     0.243 C 
ATOM     74  CG  PRO A   3       1.939 -29.864   2.814  1.00  0.00     0.022 C 
ATOM     75  CB  PRO A   3       0.616 -29.135   3.025  1.00  0.00     0.037 C 
ATOM     76  O   ASP A   2       2.557 -26.145   5.305  1.00  0.00    -0.271 OA
BRANCH  73  77
ATOM     77  CA  ASP A   2       4.254 -27.668   6.034  1.00  0.00     0.186 C 
BRANCH  77  78
ATOM     78  CB  ASP A   2       4.074 -27.347   7.527  1.00  0.00     0.147 C 
BRANCH  78  79
ATOM     79  CG  ASP A   2       5.069 -28.115   8.381  1.00  0.00     0.175 C 
ATOM     80  OD2 ASP A   2       4.779 -29.321   8.565  1.00  0.00    -0.648 OA
ATOM     81  OD1 ASP A   2       6.182 -27.594   8.522  1.00  0.00    -0.648 OA
ENDBRANCH  78  79
ENDBRANCH  77  78
BRANCH  77  82
ATOM     82  N   ASP A   2       5.602 -27.186   5.638  1.00  0.00    -0.345 N 
ATOM     83  H   ASP A   2       5.918 -26.388   6.168  1.00  0.00     0.163 HD
ATOM     84  C   TYR A   1       6.496 -27.934   4.969  1.00  0.00     0.249 C 
ATOM     85  O   TYR A   1       6.189 -28.966   4.421  1.00  0.00    -0.271 OA
BRANCH  84  86
ATOM     86  CA  TYR A   1       7.836 -27.362   4.555  1.00  0.00     0.278 C 
BRANCH  86  87
ATOM     87  N   TYR A   1       8.327 -27.983   3.314  1.00  0.00    -0.066 N 
ATOM     88  H2  TYR A   1       7.556 -28.355   2.780  1.00  0.00     0.275 HD
ATOM     89  H1  TYR A   1       8.966 -28.729   3.550  1.00  0.00     0.275 HD
ATOM     90  H3  TYR A   1       8.813 -27.286   2.760  1.00  0.00     0.275 HD
ENDBRANCH  86  87
BRANCH  86  91
ATOM     91  CB  TYR A   1       7.909 -25.835   4.534  1.00  0.00     0.081 C 
BRANCH  91  92
ATOM     92  CG  TYR A   1       8.698 -25.284   5.708  1.00  0.00    -0.056 A 
ATOM     93  CD2 TYR A   1       8.007 -24.844   6.860  1.00  0.00     0.010 A 
ATOM     94  CE2 TYR A   1       8.720 -24.304   7.945  1.00  0.00     0.037 A 
ATOM     95  CZ  TYR A   1      10.129 -24.212   7.888  1.00  0.00     0.065 A 
ATOM     96  CE1 TYR A   1      10.821 -24.683   6.756  1.00  0.00     0.037 A 
ATOM     97  CD1 TYR A   1      10.111 -25.224   5.660  1.00  0.00     0.010 A 
BRANCH  95  98
ATOM     98  OH  TYR A   1      10.822 -23.678   8.920  1.00  0.00    -0.361 OA
ATOM     99  HH  TYR A   1      10.262 -23.523   9.681  1.00  0.00     0.217 HD
ENDBRANCH  95  98
ENDBRANCH  91  92
ENDBRANCH  86  91
ENDBRANCH  84  86
ENDBRANCH  77  82
ENDBRANCH  73  77
ENDBRANCH  68  70
ENDBRANCH  65  66
BRANCH  65 100
ATOM    100  CB  GLU A   4      -1.633 -28.560   7.746  1.00  0.00     0.045 C 
BRANCH 100 101
ATOM    101  CG  GLU A   4      -3.071 -29.085   7.606  1.00  0.00     0.116 C 
BRANCH 101 102
ATOM    102  CD  GLU A   4      -3.400 -29.462   6.151  1.00  0.00     0.172 C 
ATOM    103  OE2 GLU A   4      -4.329 -28.818   5.614  1.00  0.00    -0.648 OA
ATOM    104  OE1 GLU A   4      -2.983 -30.576   5.744  1.00  0.00    -0.648 OA
ENDBRANCH 101 102
ENDBRANCH 100 101
ENDBRANCH  65 100
ENDBRANCH  63  65
ENDBRANCH  60  61
BRANCH  60 105
ATOM    105  CB  TYR A   5       0.451 -22.826   7.029  1.00  0.00     0.073 C 
BRANCH 105 106
ATOM    106  CG  TYR A   5       1.902 -22.855   7.498  1.00  0.00    -0.056 A 
ATOM    107  CD1 TYR A   5       2.734 -21.720   7.342  1.00  0.00     0.010 A 
ATOM    108  CE1 TYR A   5       4.025 -21.707   7.923  1.00  0.00     0.037 A 
ATOM    109  CZ  TYR A   5       4.484 -22.825   8.644  1.00  0.00     0.065 A 
ATOM    110  CE2 TYR A   5       3.667 -23.969   8.773  1.00  0.00     0.037 A 
ATOM    111  CD2 TYR A   5       2.377 -23.980   8.209  1.00  0.00     0.010 A 
BRANCH 109 112
ATOM    112  OH  TYR A   5       5.706 -22.804   9.223  1.00  0.00    -0.361 OA
ATOM    113  HH  TYR A   5       5.607 -22.787  10.177  1.00  0.00     0.217 HD
ENDBRANCH 109 112
ENDBRANCH 105 106
ENDBRANCH  60 105
ENDBRANCH   1  60
TORSDOF 38
ENDMDL
MODEL 9
REMARK VINA RESULT:      -3.0      9.706     16.953
REMARK WARNING: 32 MAX_TORS EXCEEDED!!!
REMARK  38 active torsions:
REMARK  status: ('A' for Active; 'I' for Inactive)
REMARK    1  A    between atoms: N_1  and  CA_2 
REMARK    2  A    between atoms: CA_2  and  CB_5 
REMARK    3  A    between atoms: CA_2  and  C_3 
REMARK       I    between atoms: C_3  and  N_17 
REMARK    4  A    between atoms: CB_5  and  CG_6 
REMARK    5  A    between atoms: CZ_10  and  OH_11 
REMARK    6  A    between atoms: N_17  and  CA_18 
REMARK    7  A    between atoms: CA_18  and  CB_21 
REMARK    8  A    between atoms: CA_18  and  C_19 
REMARK       I    between atoms: C_19  and  N_26 
REMARK    9  A    between atoms: CB_21  and  CG_22 
REMARK   10  A    between atoms: CA_27  and  C_28 
REMARK       I    between atoms: C_28  and  N_33 
REMARK   11  A    between atoms: N_33  and  CA_34 
REMARK   12  A    between atoms: CA_34  and  C_35 
REMARK   13  A    between atoms: CA_34  and  CB_37 
REMARK       I    between atoms: C_35  and  N_43 
REMARK   14  A    between atoms: CB_37  and  CG_38 
REMARK   15  A    between atoms: CG_38  and  CD_39 
REMARK   16  A    between atoms: N_43  and  CA_44 
REMARK   17  A    between atoms: CA_44  and  CB_47 
REMARK   18  A    between atoms: CA_44  and  C_45 
REMARK       I    between atoms: C_45  and  N_57 
REMARK   19  A    between atoms: CB_47  and  CG_48 
REMARK   20  A    between atoms: CZ_52  and  OH_53 
REMARK   21  A    between atoms: N_57  and  CA_58 
REMARK   22  A    between atoms: CA_58  and  CB_61 
REMARK   23  A    between atoms: CA_58  and  C_59 
REMARK       I    between atoms: C_59  and  N_74 
REMARK   24  A    between atoms: CB_61  and  CG_62 
REMARK   25  A    between atoms: CG_62  and  CD_63 
REMARK   26  A    between atoms: CD_63  and  NE_64 
REMARK       I    between atoms: NE_64  and  CZ_65 
REMARK       I    between atoms: CZ_65  and  NH2_66 
REMARK   27  A    between atoms: N_74  and  CA_75 
REMARK   28  A    between atoms: CA_75  and  CB_78 
REMARK   29  A    between atoms: CA_75  and  C_76 
REMARK       I    between atoms: C_76  and  N_85 
REMARK   30  A    between atoms: CB_78  and  CG_79 
REMARK       I    between atoms: CG_79  and  ND2_80 
REMARK   31  A    between atoms: N_85  and  CA_86 
REMARK   32  A    between atoms: CA_86  and  CB_89 
REMARK   33  A    between atoms: CA_86  and  C_87 
REMARK       I    between atoms: C_87  and  N_97 
REMARK   34  A    between atoms: CB_89  and  CG_90 
REMARK   35  A    between atoms: N_97  and  CA_98 
REMARK   36  A    between atoms: CA_98  and  C_99 
REMARK   37  A    between atoms: CA_98  and  CB_102 
REMARK   38  A    between atoms: CB_102  and  CG_103 
ROOT
ATOM      1  C   TYR A   5      -0.981 -24.631   7.062  1.00  0.00     0.241 C 
ATOM      2  O   TYR A   5      -0.906 -25.791   7.458  1.00  0.00    -0.271 OA
ATOM      3  N   ARG A   6      -2.167 -24.067   6.771  1.00  0.00    -0.346 N 
ATOM      4  H   ARG A   6      -2.162 -23.098   6.465  1.00  0.00     0.163 HD
ENDROOT
BRANCH   3   5
ATOM      5  CA  ARG A   6      -3.468 -24.754   6.934  1.00  0.00     0.176 C 
BRANCH   5   6
ATOM      6  CB  ARG A   6      -4.189 -24.171   8.166  1.00  0.00     0.036 C 
BRANCH   6   7
ATOM      7  CG  ARG A   6      -3.779 -22.713   8.479  1.00  0.00     0.023 C 
BRANCH   7   8
ATOM      8  CD  ARG A   6      -4.937 -21.711   8.353  1.00  0.00     0.138 C 
BRANCH   8   9
ATOM      9  NE  ARG A   6      -5.697 -21.896   7.097  1.00  0.00    -0.227 N 
ATOM     10  HE  ARG A   6      -5.856 -22.849   6.821  1.00  0.00     0.177 HD
ATOM     11  CZ  ARG A   6      -6.283 -20.967   6.358  1.00  0.00     0.665 C 
ATOM     12  NH2 ARG A   6      -7.019 -21.325   5.352  1.00  0.00    -0.235 N 
ATOM     13  NH1 ARG A   6      -6.179 -19.689   6.586  1.00  0.00    -0.235 N 
ATOM     14 1HH2 ARG A   6      -7.345 -22.272   5.332  1.00  0.00     0.174 HD
ATOM     15 2HH2 ARG A   6      -7.692 -20.652   5.021  1.00  0.00     0.174 HD
ATOM     16 1HH1 ARG A   6      -5.806 -19.386   7.468  1.00  0.00     0.174 HD
ATOM     17 2HH1 ARG A   6      -6.692 -19.037   6.023  1.00  0.00     0.174 HD
ENDBRANCH   8   9
ENDBRANCH   7   8
ENDBRANCH   6   7
ENDBRANCH   5   6
BRANCH   5  18
ATOM     18  C   ARG A   6      -4.368 -24.697   5.679  1.00  0.00     0.241 C 
ATOM     19  N   ASN A   7      -5.539 -25.349   5.672  1.00  0.00    -0.346 N 
ATOM     20  H   ASN A   7      -5.860 -25.776   6.532  1.00  0.00     0.163 HD
ATOM     21  O   ARG A   6      -3.934 -24.158   4.669  1.00  0.00    -0.271 OA
BRANCH  19  22
ATOM     22  CA  ASN A   7      -6.483 -25.250   4.541  1.00  0.00     0.185 C 
BRANCH  22  23
ATOM     23  CB  ASN A   7      -6.390 -26.491   3.633  1.00  0.00     0.137 C 
BRANCH  23  24
ATOM     24  CG  ASN A   7      -5.721 -27.732   4.188  1.00  0.00     0.217 C 
ATOM     25  ND2 ASN A   7      -6.527 -28.748   4.408  1.00  0.00    -0.370 N 
ATOM     26 2HD2 ASN A   7      -7.534 -28.599   4.409  1.00  0.00     0.159 HD
ATOM     27 1HD2 ASN A   7      -6.121 -29.609   4.706  1.00  0.00     0.159 HD
ATOM     28  OD1 ASN A   7      -4.505 -27.905   4.195  1.00  0.00    -0.274 OA
ENDBRANCH  23  24
ENDBRANCH  22  23
BRANCH  22  29
ATOM     29  C   ASN A   7      -7.954 -25.078   4.980  1.00  0.00     0.241 C 
ATOM     30  N   PHE A   8      -8.829 -26.031   4.624  1.00  0.00    -0.346 N 
ATOM     31  H   PHE A   8      -8.497 -26.789   4.035  1.00  0.00     0.163 HD
ATOM     32  O   ASN A   7      -8.302 -24.027   5.516  1.00  0.00    -0.271 OA
BRANCH  30  33
ATOM     33  CA  PHE A   8     -10.237 -26.063   5.048  1.00  0.00     0.180 C 
BRANCH  33  34
ATOM     34  CB  PHE A   8     -11.085 -25.537   3.871  1.00  0.00     0.073 C 
BRANCH  34  35
ATOM     35  CG  PHE A   8     -12.168 -24.547   4.264  1.00  0.00    -0.056 A 
ATOM     36  CD1 PHE A   8     -11.842 -23.199   4.508  1.00  0.00     0.007 A 
ATOM     37  CE1 PHE A   8     -12.820 -22.316   5.000  1.00  0.00     0.001 A 
ATOM     38  CZ  PHE A   8     -14.125 -22.777   5.247  1.00  0.00     0.000 A 
ATOM     39  CE2 PHE A   8     -14.460 -24.115   4.973  1.00  0.00     0.001 A 
ATOM     40  CD2 PHE A   8     -13.485 -24.997   4.476  1.00  0.00     0.007 A 
ENDBRANCH  34  35
ENDBRANCH  33  34
BRANCH  33  41
ATOM     41  C   PHE A   8     -10.694 -27.463   5.529  1.00  0.00     0.241 C 
ATOM     42  N   TRP A   9      -9.997 -28.018   6.533  1.00  0.00    -0.344 N 
ATOM     43  H   TRP A   9      -9.235 -27.480   6.916  1.00  0.00     0.163 HD
ATOM     44  O   PHE A   8     -11.627 -28.028   4.955  1.00  0.00    -0.271 OA
BRANCH  42  45
ATOM     45  CA  TRP A   9     -10.188 -29.361   7.108  1.00  0.00     0.190 C 
BRANCH  45  46
ATOM     46  C   TRP A   9     -10.219 -29.413   8.651  1.00  0.00     0.197 C 
ATOM     47  OXT TRP A   9      -9.818 -30.475   9.193  1.00  0.00    -0.646 OA
ATOM     48  O   TRP A   9     -10.969 -28.589   9.217  1.00  0.00    -0.646 OA
ENDBRANCH  45  46
BRANCH  45  49
ATOM     49  CB  TRP A   9      -9.077 -30.262   6.547  1.00  0.00     0.077 C 
BRANCH  49  50
ATOM     50  CG  TRP A   9      -9.556 -31.275   5.558  1.00  0.00    -0.028 A 
ATOM     51  CD1 TRP A   9      -9.684 -31.033   4.238  1.00  0.00     0.096 A 
ATOM     52  NE1 TRP A   9      -9.986 -32.202   3.572  1.00  0.00    -0.365 N 
ATOM     53  HE1 TRP A   9      -9.927 -32.276   2.572  1.00  0.00     0.165 HD
ATOM     54  CE2 TRP A   9     -10.003 -33.276   4.434  1.00  0.00     0.042 A 
ATOM     55  CD2 TRP A   9      -9.732 -32.716   5.718  1.00  0.00    -0.002 A 
ATOM     56  CZ2 TRP A   9     -10.159 -34.653   4.227  1.00  0.00     0.030 A 
ATOM     57  CE3 TRP A   9      -9.614 -33.620   6.797  1.00  0.00     0.014 A 
ATOM     58  CZ3 TRP A   9      -9.751 -35.009   6.599  1.00  0.00     0.001 A 
ATOM     59  CH2 TRP A   9     -10.025 -35.526   5.319  1.00  0.00     0.002 A 
ENDBRANCH  49  50
ENDBRANCH  45  49
ENDBRANCH  42  45
ENDBRANCH  33  41
ENDBRANCH  30  33
ENDBRANCH  22  29
ENDBRANCH  19  22
ENDBRANCH   5  18
ENDBRANCH   3   5
BRANCH   1  60
ATOM     60  CA  TYR A   5       0.307 -23.915   6.617  1.00  0.00     0.180 C 
BRANCH  60  61
ATOM     61  N   TYR A   5       1.233 -24.820   5.926  1.00  0.00    -0.346 N 
ATOM     62  H   TYR A   5       0.885 -25.364   5.151  1.00  0.00     0.163 HD
ATOM     63  C   GLU A   4       2.490 -25.030   6.351  1.00  0.00     0.241 C 
ATOM     64  O   GLU A   4       2.894 -24.534   7.399  1.00  0.00    -0.271 OA
BRANCH  63  65
ATOM     65  CA  GLU A   4       3.289 -26.155   5.677  1.00  0.00     0.177 C 
BRANCH  65  66
ATOM     66  N   GLU A   4       4.662 -25.721   5.364  1.00  0.00    -0.346 N 
ATOM     67  H   GLU A   4       4.887 -24.753   5.557  1.00  0.00     0.163 HD
ATOM     68  C   PRO A   3       5.526 -26.397   4.600  1.00  0.00     0.241 C 
ATOM     69  O   PRO A   3       5.274 -27.491   4.124  1.00  0.00    -0.271 OA
BRANCH  68  70
ATOM     70  CA  PRO A   3       6.904 -25.776   4.334  1.00  0.00     0.179 C 
ATOM     71  N   PRO A   3       8.062 -26.449   4.964  1.00  0.00    -0.337 N 
ATOM     72  CD  PRO A   3       9.063 -26.724   3.936  1.00  0.00     0.127 C 
ATOM     73  C   ASP A   2       8.224 -26.534   6.311  1.00  0.00     0.243 C 
ATOM     74  CG  PRO A   3       8.722 -25.793   2.775  1.00  0.00     0.022 C 
ATOM     75  CB  PRO A   3       7.198 -25.757   2.827  1.00  0.00     0.037 C 
ATOM     76  O   ASP A   2       7.271 -26.227   7.032  1.00  0.00    -0.271 OA
BRANCH  73  77
ATOM     77  CA  ASP A   2       9.342 -27.425   6.958  1.00  0.00     0.186 C 
BRANCH  77  78
ATOM     78  CB  ASP A   2      10.781 -26.941   6.714  1.00  0.00     0.147 C 
BRANCH  78  79
ATOM     79  CG  ASP A   2      11.725 -28.110   6.490  1.00  0.00     0.175 C 
ATOM     80  OD2 ASP A   2      12.085 -28.699   7.536  1.00  0.00    -0.648 OA
ATOM     81  OD1 ASP A   2      11.776 -28.556   5.337  1.00  0.00    -0.648 OA
ENDBRANCH  78  79
ENDBRANCH  77  78
BRANCH  77  82
ATOM     82  N   ASP A   2       9.308 -28.881   6.667  1.00  0.00    -0.345 N 
ATOM     83  H   ASP A   2       9.999 -29.173   5.993  1.00  0.00     0.163 HD
ATOM     84  C   TYR A   1       8.745 -29.792   7.478  1.00  0.00     0.249 C 
ATOM     85  O   TYR A   1       8.007 -29.480   8.383  1.00  0.00    -0.271 OA
BRANCH  84  86
ATOM     86  CA  TYR A   1       8.706 -31.257   7.095  1.00  0.00     0.278 C 
BRANCH  86  87
ATOM     87  N   TYR A   1       9.998 -31.914   7.349  1.00  0.00    -0.066 N 
ATOM     88  H2  TYR A   1       9.853 -32.866   7.653  1.00  0.00     0.275 HD
ATOM     89  H1  TYR A   1      10.493 -31.402   8.066  1.00  0.00     0.275 HD
ATOM     90  H3  TYR A   1      10.547 -31.914   6.496  1.00  0.00     0.275 HD
ENDBRANCH  86  87
BRANCH  86  91
ATOM     91  CB  TYR A   1       7.514 -32.039   7.647  1.00  0.00     0.081 C 
BRANCH  91  92
ATOM     92  CG  TYR A   1       6.307 -31.965   6.728  1.00  0.00    -0.056 A 
ATOM     93  CD2 TYR A   1       5.085 -31.463   7.232  1.00  0.00     0.010 A 
ATOM     94  CE2 TYR A   1       3.950 -31.415   6.403  1.00  0.00     0.037 A 
ATOM     95  CZ  TYR A   1       4.034 -31.857   5.064  1.00  0.00     0.065 A 
ATOM     96  CE1 TYR A   1       5.260 -32.323   4.551  1.00  0.00     0.037 A 
ATOM     97  CD1 TYR A   1       6.404 -32.378   5.379  1.00  0.00     0.010 A 
BRANCH  95  98
ATOM     98  OH  TYR A   1       2.942 -31.831   4.265  1.00  0.00    -0.361 OA
ATOM     99  HH  TYR A   1       2.167 -32.176   4.711  1.00  0.00     0.217 HD
ENDBRANCH  95  98
ENDBRANCH  91  92
ENDBRANCH  86  91
ENDBRANCH  84  86
ENDBRANCH  77  82
ENDBRANCH  73  77
ENDBRANCH  68  70
ENDBRANCH  65  66
BRANCH  65 100
ATOM    100  CB  GLU A   4       3.348 -27.409   6.576  1.00  0.00     0.045 C 
BRANCH 100 101
ATOM    101  CG  GLU A   4       2.033 -28.196   6.703  1.00  0.00     0.116 C 
BRANCH 101 102
ATOM    102  CD  GLU A   4       1.376 -28.432   5.332  1.00  0.00     0.172 C 
ATOM    103  OE2 GLU A   4       2.075 -29.031   4.485  1.00  0.00    -0.648 OA
ATOM    104  OE1 GLU A   4       0.375 -27.726   5.052  1.00  0.00    -0.648 OA
ENDBRANCH 101 102
ENDBRANCH 100 101
ENDBRANCH  65 100
ENDBRANCH  63  65
ENDBRANCH  60  61
BRANCH  60 105
ATOM    105  CB  TYR A   5       0.002 -22.683   5.743  1.00  0.00     0.073 C 
BRANCH 105 106
ATOM    106  CG  TYR A   5      -0.154 -21.356   6.478  1.00  0.00    -0.056 A 
ATOM    107  CD1 TYR A   5      -1.305 -20.555   6.284  1.00  0.00     0.010 A 
ATOM    108  CE1 TYR A   5      -1.509 -19.407   7.089  1.00  0.00     0.037 A 
ATOM    109  CZ  TYR A   5      -0.563 -19.060   8.071  1.00  0.00     0.065 A 
ATOM    110  CE2 TYR A   5       0.599 -19.841   8.244  1.00  0.00     0.037 A 
ATOM    111  CD2 TYR A   5       0.799 -20.989   7.455  1.00  0.00     0.010 A 
BRANCH 109 112
ATOM    112  OH  TYR A   5      -0.771 -17.980   8.860  1.00  0.00    -0.361 OA
ATOM    113  HH  TYR A   5      -1.714 -17.828   8.951  1.00  0.00     0.217 HD
ENDBRANCH 109 112
ENDBRANCH 105 106
ENDBRANCH  60 105
ENDBRANCH   1  60
TORSDOF 38
ENDMDL
