MODEL 1
REMARK VINA RESULT:      -6.4      0.000      0.000
REMARK  28 active torsions:
REMARK  status: ('A' for Active; 'I' for Inactive)
REMARK       I    between atoms: C_1  and  N_3 
REMARK    1  A    between atoms: C_1  and  C_41 
REMARK    2  A    between atoms: N_3  and  C_5 
REMARK    3  A    between atoms: C_5  and  C_6 
REMARK    4  A    between atoms: C_5  and  C_18 
REMARK       I    between atoms: C_18  and  N_19 
REMARK    5  A    between atoms: C_20  and  C_25 
REMARK       I    between atoms: C_25  and  N_26 
REMARK    6  A    between atoms: N_26  and  C_29 
REMARK    7  A    between atoms: C_29  and  C_30 
REMARK    8  A    between atoms: C_29  and  C_38 
REMARK       I    between atoms: C_30  and  N_31 
REMARK    9  A    between atoms: N_31  and  C_34 
REMARK   10  A    between atoms: C_34  and  C_35 
REMARK   11  A    between atoms: C_38  and  O_39 
REMARK   12  A    between atoms: C_6  and  C_7 
REMARK   13  A    between atoms: C_7  and  C_8 
REMARK   14  A    between atoms: C_8  and  N_9 
REMARK       I    between atoms: N_9  and  C_10 
REMARK       I    between atoms: C_10  and  N_12 
REMARK   15  A    between atoms: C_41  and  C_42 
REMARK   16  A    between atoms: C_41  and  N_48 
REMARK       I    between atoms: N_48  and  C_50 
REMARK   17  A    between atoms: C_50  and  C_52 
REMARK   18  A    between atoms: C_52  and  N_53 
REMARK   19  A    between atoms: C_52  and  C_72 
REMARK       I    between atoms: N_53  and  C_55 
REMARK   20  A    between atoms: C_55  and  C_57 
REMARK   21  A    between atoms: C_57  and  N_58 
REMARK       I    between atoms: N_58  and  C_60 
REMARK   22  A    between atoms: C_60  and  C_62 
REMARK   23  A    between atoms: C_62  and  N_63 
REMARK   24  A    between atoms: C_62  and  C_67 
REMARK   25  A    between atoms: C_67  and  C_68 
REMARK   26  A    between atoms: C_68  and  C_69 
REMARK   27  A    between atoms: C_72  and  C_73 
REMARK   28  A    between atoms: C_42  and  C_43 
REMARK       I    between atoms: C_43  and  N_44 
ROOT
HETATM    1  C           0       3.288  -3.674  10.887  0.00  0.00     0.241 C 
HETATM    2  O           0       3.671  -2.778  11.648  0.00  0.00    -0.271 OA
HETATM    3  N           0       3.990  -4.820  10.724  0.00  0.00    -0.346 N 
HETATM    4  H           0       3.661  -5.515  10.064  0.00  0.00     0.163 HD
ENDROOT
BRANCH   3   5
HETATM    5  C           0       5.128  -5.116  11.592  0.00  0.00     0.176 C 
BRANCH   5   6
HETATM    6  C           0       5.047  -6.540  12.168  0.00  0.00     0.036 C 
BRANCH   6   7
HETATM    7  C           0       4.162  -6.576  13.419  0.00  0.00     0.023 C 
BRANCH   7   8
HETATM    8  C           0       2.808  -7.252  13.209  0.00  0.00     0.138 C 
BRANCH   8   9
HETATM    9  N           0       1.775  -6.244  13.436  0.00  0.00    -0.227 N 
HETATM   10  C           0       0.729  -5.985  12.658  0.00  0.00     0.665 C 
HETATM   11  N           0       0.541  -6.622  11.494  0.00  0.00    -0.235 N 
HETATM   12  N           0      -0.153  -5.063  13.084  0.00  0.00    -0.235 N 
HETATM   13  H           0      -0.325  -6.521  10.986  0.00  0.00     0.174 HD
HETATM   14  H           0       1.156  -7.368  11.209  0.00  0.00     0.174 HD
HETATM   15  H           0      -0.815  -4.657  12.441  0.00  0.00     0.174 HD
HETATM   16  H           0       0.128  -4.530  13.911  0.00  0.00     0.174 HD
HETATM   17  H           0       1.840  -5.633  14.268  0.00  0.00     0.177 HD
ENDBRANCH   8   9
ENDBRANCH   7   8
ENDBRANCH   6   7
ENDBRANCH   5   6
BRANCH   5  18
HETATM   18  C           0       6.515  -4.781  11.001  0.00  0.00     0.243 C 
HETATM   19  N           0       6.917  -5.336   9.825  0.00  0.00    -0.337 N 
HETATM   20  C           0       8.190  -4.904   9.223  0.00  0.00     0.179 C 
HETATM   21  C           0       6.491  -6.633   9.258  0.00  0.00     0.127 C 
HETATM   22  C           0       8.685  -6.137   8.415  0.00  0.00     0.037 C 
HETATM   23  C           0       7.830  -7.304   8.933  0.00  0.00     0.022 C 
HETATM   24  O           0       7.199  -3.946  11.601  0.00  0.00    -0.271 OA
BRANCH  20  25
HETATM   25  C           0       8.090  -3.670   8.310  0.00  0.00     0.241 C 
HETATM   26  N           0       9.242  -3.152   7.813  0.00  0.00    -0.344 N 
HETATM   27  H           0      10.131  -3.590   8.040  0.00  0.00     0.163 HD
HETATM   28  O           0       6.977  -3.190   8.079  0.00  0.00    -0.271 OA
BRANCH  26  29
HETATM   29  C           0       9.269  -1.885   7.097  0.00  0.00     0.200 C 
BRANCH  29  30
HETATM   30  C           0       8.643  -0.685   7.834  0.00  0.00     0.242 C 
HETATM   31  N           0       8.623  -0.709   9.174  0.00  0.00    -0.354 N 
HETATM   32  H           0       9.046  -1.456   9.720  0.00  0.00     0.162 HD
HETATM   33  O           0       8.180   0.250   7.163  0.00  0.00    -0.271 OA
BRANCH  31  34
HETATM   34  C           0       8.108   0.376   9.987  0.00  0.00     0.203 C 
BRANCH  34  35
HETATM   35  C           0       6.595   0.164  10.279  0.00  0.00     0.307 C 
HETATM   36  O           0       5.790   0.778   9.527  0.00  0.00    -0.186 OA
HETATM   37  O           0       6.340  -0.602  11.239  0.00  0.00    -0.186 OA
ENDBRANCH  34  35
ENDBRANCH  31  34
ENDBRANCH  29  30
BRANCH  29  38
HETATM   38  C           0       8.624  -2.022   5.702  0.00  0.00     0.199 C 
BRANCH  38  39
HETATM   39  O           0       8.962  -0.956   4.834  0.00  0.00    -0.398 OA
HETATM   40  H           0       9.287  -1.309   3.989  0.00  0.00     0.209 HD
ENDBRANCH  38  39
ENDBRANCH  29  38
ENDBRANCH  26  29
ENDBRANCH  20  25
ENDBRANCH   5  18
ENDBRANCH   3   5
BRANCH   1  41
HETATM   41  C           0       1.957  -3.551  10.115  0.00  0.00     0.185 C 
BRANCH  41  42
HETATM   42  C           0       2.087  -3.985   8.643  0.00  0.00     0.137 C 
BRANCH  42  43
HETATM   43  C           0       1.505  -5.363   8.326  0.00  0.00     0.217 C 
HETATM   44  N           0       2.389  -6.221   7.772  0.00  0.00    -0.370 N 
HETATM   45  H           0       2.032  -7.108   7.447  0.00  0.00     0.159 HD
HETATM   46  H           0       3.347  -5.946   7.521  0.00  0.00     0.159 HD
HETATM   47  O           0       0.320  -5.634   8.531  0.00  0.00    -0.274 OA
ENDBRANCH  42  43
ENDBRANCH  41  42
BRANCH  41  48
HETATM   48  N           0       1.442  -2.187  10.121  0.00  0.00    -0.346 N 
HETATM   49  H           0       2.020  -1.456   9.727  0.00  0.00     0.163 HD
HETATM   50  C           0       0.280  -1.828  10.705  0.00  0.00     0.241 C 
HETATM   51  O           0      -0.446  -2.622  11.315  0.00  0.00    -0.271 OA
BRANCH  50  52
HETATM   52  C           0      -0.137  -0.352  10.557  0.00  0.00     0.177 C 
BRANCH  52  53
HETATM   53  N           0      -0.927  -0.116   9.353  0.00  0.00    -0.346 N 
HETATM   54  H           0      -1.729  -0.706   9.172  0.00  0.00     0.163 HD
HETATM   55  C           0      -0.693   0.947   8.537  0.00  0.00     0.236 C 
HETATM   56  O           0       0.189   1.776   8.753  0.00  0.00    -0.272 OA
BRANCH  55  57
HETATM   57  C           0      -1.613   1.091   7.318  0.00  0.00     0.225 C 
BRANCH  57  58
HETATM   58  N           0      -2.722   0.140   7.287  0.00  0.00    -0.351 N 
HETATM   59  H           0      -2.522  -0.811   7.562  0.00  0.00     0.163 HD
HETATM   60  C           0      -3.992   0.600   7.186  0.00  0.00     0.248 C 
HETATM   61  O           0      -4.231   1.802   7.028  0.00  0.00    -0.271 OA
BRANCH  60  62
HETATM   62  C           0      -5.178  -0.370   7.234  0.00  0.00     0.275 C 
BRANCH  62  63
HETATM   63  N           0      -6.523   0.336   7.278  0.00  0.00    -0.066 N 
HETATM   64  H           0      -6.498   1.258   6.829  0.00  0.00     0.275 HD
HETATM   65  H           0      -7.287  -0.202   6.857  0.00  0.00     0.275 HD
HETATM   66  H           0      -6.793   0.494   8.255  0.00  0.00     0.275 HD
ENDBRANCH  62  63
BRANCH  62  67
HETATM   67  C           0      -5.201  -1.415   6.107  0.00  0.00     0.053 C 
BRANCH  67  68
HETATM   68  C           0      -5.516  -0.844   4.719  0.00  0.00     0.115 C 
BRANCH  68  69
HETATM   69  C           0      -6.796  -1.358   4.030  0.00  0.00     0.172 C 
HETATM   70  O           0      -7.915  -1.002   4.483  0.00  0.00    -0.648 OA
HETATM   71  O           0      -6.619  -2.140   3.041  0.00  0.00    -0.648 OA
ENDBRANCH  68  69
ENDBRANCH  67  68
ENDBRANCH  62  67
ENDBRANCH  60  62
ENDBRANCH  57  58
ENDBRANCH  55  57
ENDBRANCH  52  53
BRANCH  52  72
HETATM   72  C           0      -0.932   0.143  11.787  0.00  0.00     0.038 C 
BRANCH  72  73
HETATM   73  C           0      -2.469   0.090  11.692  0.00  0.00    -0.020 C 
HETATM   74  C           0      -3.105  -0.683  12.857  0.00  0.00     0.009 C 
HETATM   75  C           0      -3.020   1.523  11.621  0.00  0.00     0.009 C 
ENDBRANCH  72  73
ENDBRANCH  52  72
ENDBRANCH  50  52
ENDBRANCH  41  48
ENDBRANCH   1  41
TORSDOF 28
ENDMDL
MODEL 2
REMARK VINA RESULT:      -6.2      1.602      2.496
REMARK  28 active torsions:
REMARK  status: ('A' for Active; 'I' for Inactive)
REMARK       I    between atoms: C_1  and  N_3 
REMARK    1  A    between atoms: C_1  and  C_41 
REMARK    2  A    between atoms: N_3  and  C_5 
REMARK    3  A    between atoms: C_5  and  C_6 
REMARK    4  A    between atoms: C_5  and  C_18 
REMARK       I    between atoms: C_18  and  N_19 
REMARK    5  A    between atoms: C_20  and  C_25 
REMARK       I    between atoms: C_25  and  N_26 
REMARK    6  A    between atoms: N_26  and  C_29 
REMARK    7  A    between atoms: C_29  and  C_30 
REMARK    8  A    between atoms: C_29  and  C_38 
REMARK       I    between atoms: C_30  and  N_31 
REMARK    9  A    between atoms: N_31  and  C_34 
REMARK   10  A    between atoms: C_34  and  C_35 
REMARK   11  A    between atoms: C_38  and  O_39 
REMARK   12  A    between atoms: C_6  and  C_7 
REMARK   13  A    between atoms: C_7  and  C_8 
REMARK   14  A    between atoms: C_8  and  N_9 
REMARK       I    between atoms: N_9  and  C_10 
REMARK       I    between atoms: C_10  and  N_12 
REMARK   15  A    between atoms: C_41  and  C_42 
REMARK   16  A    between atoms: C_41  and  N_48 
REMARK       I    between atoms: N_48  and  C_50 
REMARK   17  A    between atoms: C_50  and  C_52 
REMARK   18  A    between atoms: C_52  and  N_53 
REMARK   19  A    between atoms: C_52  and  C_72 
REMARK       I    between atoms: N_53  and  C_55 
REMARK   20  A    between atoms: C_55  and  C_57 
REMARK   21  A    between atoms: C_57  and  N_58 
REMARK       I    between atoms: N_58  and  C_60 
REMARK   22  A    between atoms: C_60  and  C_62 
REMARK   23  A    between atoms: C_62  and  N_63 
REMARK   24  A    between atoms: C_62  and  C_67 
REMARK   25  A    between atoms: C_67  and  C_68 
REMARK   26  A    between atoms: C_68  and  C_69 
REMARK   27  A    between atoms: C_72  and  C_73 
REMARK   28  A    between atoms: C_42  and  C_43 
REMARK       I    between atoms: C_43  and  N_44 
ROOT
HETATM    1  C           0       3.215  -4.114  11.309  0.00  0.00     0.241 C 
HETATM    2  O           0       3.332  -3.412  12.320  0.00  0.00    -0.271 OA
HETATM    3  N           0       4.048  -5.152  11.062  0.00  0.00    -0.346 N 
HETATM    4  H           0       3.943  -5.681  10.204  0.00  0.00     0.163 HD
ENDROOT
BRANCH   3   5
HETATM    5  C           0       4.996  -5.595  12.082  0.00  0.00     0.176 C 
BRANCH   5   6
HETATM    6  C           0       4.592  -6.953  12.681  0.00  0.00     0.036 C 
BRANCH   6   7
HETATM    7  C           0       3.682  -6.766  13.900  0.00  0.00     0.023 C 
BRANCH   7   8
HETATM    8  C           0       2.282  -7.358  13.733  0.00  0.00     0.138 C 
BRANCH   8   9
HETATM    9  N           0       1.329  -6.254  13.804  0.00  0.00    -0.227 N 
HETATM   10  C           0       0.462  -5.888  12.864  0.00  0.00     0.665 C 
HETATM   11  N           0       0.417  -6.496  11.671  0.00  0.00    -0.235 N 
HETATM   12  N           0      -0.387  -4.885  13.155  0.00  0.00    -0.235 N 
HETATM   13  H           0      -0.335  -6.306  11.025  0.00  0.00     0.174 HD
HETATM   14  H           0       0.996  -7.298  11.478  0.00  0.00     0.174 HD
HETATM   15  H           0      -0.886  -4.412  12.418  0.00  0.00     0.174 HD
HETATM   16  H           0      -0.202  -4.387  14.030  0.00  0.00     0.174 HD
HETATM   17  H           0       1.308  -5.657  14.648  0.00  0.00     0.177 HD
ENDBRANCH   8   9
ENDBRANCH   7   8
ENDBRANCH   6   7
ENDBRANCH   5   6
BRANCH   5  18
HETATM   18  C           0       6.485  -5.533  11.675  0.00  0.00     0.243 C 
HETATM   19  N           0       6.853  -5.710  10.377  0.00  0.00    -0.337 N 
HETATM   20  C           0       8.263  -5.523   9.995  0.00  0.00     0.179 C 
HETATM   21  C           0       6.138  -6.491   9.345  0.00  0.00     0.127 C 
HETATM   22  C           0       8.471  -6.457   8.770  0.00  0.00     0.037 C 
HETATM   23  C           0       7.248  -7.388   8.786  0.00  0.00     0.022 C 
HETATM   24  O           0       7.302  -5.250  12.556  0.00  0.00    -0.271 OA
BRANCH  20  25
HETATM   25  C           0       8.652  -4.077   9.641  0.00  0.00     0.241 C 
HETATM   26  N           0       8.218  -3.575   8.457  0.00  0.00    -0.344 N 
HETATM   27  H           0       7.645  -4.150   7.844  0.00  0.00     0.163 HD
HETATM   28  O           0       9.351  -3.438  10.431  0.00  0.00    -0.271 OA
BRANCH  26  29
HETATM   29  C           0       8.683  -2.292   7.949  0.00  0.00     0.200 C 
BRANCH  29  30
HETATM   30  C           0       8.006  -1.046   8.552  0.00  0.00     0.242 C 
HETATM   31  N           0       7.312  -1.194   9.689  0.00  0.00    -0.354 N 
HETATM   32  H           0       7.258  -2.077  10.192  0.00  0.00     0.162 HD
HETATM   33  O           0       8.124   0.039   7.962  0.00  0.00    -0.271 OA
BRANCH  31  34
HETATM   34  C           0       6.670  -0.095  10.384  0.00  0.00     0.203 C 
BRANCH  34  35
HETATM   35  C           0       5.309  -0.553  10.983  0.00  0.00     0.307 C 
HETATM   36  O           0       5.155  -0.370  12.221  0.00  0.00    -0.186 OA
HETATM   37  O           0       4.508  -1.058  10.161  0.00  0.00    -0.186 OA
ENDBRANCH  34  35
ENDBRANCH  31  34
ENDBRANCH  29  30
BRANCH  29  38
HETATM   38  C           0       8.583  -2.236   6.410  0.00  0.00     0.199 C 
BRANCH  38  39
HETATM   39  O           0       9.433  -1.259   5.840  0.00  0.00    -0.398 OA
HETATM   40  H           0       9.631  -1.492   4.917  0.00  0.00     0.209 HD
ENDBRANCH  38  39
ENDBRANCH  29  38
ENDBRANCH  26  29
ENDBRANCH  20  25
ENDBRANCH   5  18
ENDBRANCH   3   5
BRANCH   1  41
HETATM   41  C           0       2.078  -3.871  10.295  0.00  0.00     0.185 C 
BRANCH  41  42
HETATM   42  C           0       2.448  -4.330   8.872  0.00  0.00     0.137 C 
BRANCH  42  43
HETATM   43  C           0       1.618  -5.497   8.337  0.00  0.00     0.217 C 
HETATM   44  N           0       2.313  -6.362   7.567  0.00  0.00    -0.370 N 
HETATM   45  H           0       1.791  -7.092   7.104  0.00  0.00     0.159 HD
HETATM   46  H           0       3.295  -6.208   7.308  0.00  0.00     0.159 HD
HETATM   47  O           0       0.411  -5.600   8.569  0.00  0.00    -0.274 OA
ENDBRANCH  42  43
ENDBRANCH  41  42
BRANCH  41  48
HETATM   48  N           0       1.705  -2.464  10.212  0.00  0.00    -0.346 N 
HETATM   49  H           0       2.396  -1.805   9.876  0.00  0.00     0.163 HD
HETATM   50  C           0       0.526  -1.974  10.648  0.00  0.00     0.241 C 
HETATM   51  O           0      -0.342  -2.674  11.183  0.00  0.00    -0.271 OA
BRANCH  50  52
HETATM   52  C           0       0.280  -0.471  10.423  0.00  0.00     0.177 C 
BRANCH  52  53
HETATM   53  N           0      -0.717  -0.219   9.387  0.00  0.00    -0.346 N 
HETATM   54  H           0      -1.536  -0.813   9.343  0.00  0.00     0.163 HD
HETATM   55  C           0      -0.641   0.860   8.563  0.00  0.00     0.236 C 
HETATM   56  O           0       0.260   1.692   8.630  0.00  0.00    -0.272 OA
BRANCH  55  57
HETATM   57  C           0      -1.769   1.018   7.534  0.00  0.00     0.225 C 
BRANCH  57  58
HETATM   58  N           0      -3.000   0.308   7.879  0.00  0.00    -0.351 N 
HETATM   59  H           0      -3.003  -0.218   8.741  0.00  0.00     0.163 HD
HETATM   60  C           0      -4.145   0.603   7.220  0.00  0.00     0.248 C 
HETATM   61  O           0      -4.158   1.394   6.270  0.00  0.00    -0.271 OA
BRANCH  60  62
HETATM   62  C           0      -5.466  -0.067   7.616  0.00  0.00     0.275 C 
BRANCH  62  63
HETATM   63  N           0      -5.370  -1.583   7.678  0.00  0.00    -0.066 N 
HETATM   64  H           0      -5.797  -1.969   8.527  0.00  0.00     0.275 HD
HETATM   65  H           0      -5.783  -2.057   6.870  0.00  0.00     0.275 HD
HETATM   66  H           0      -4.383  -1.861   7.695  0.00  0.00     0.275 HD
ENDBRANCH  62  63
BRANCH  62  67
HETATM   67  C           0      -6.082   0.447   8.927  0.00  0.00     0.053 C 
BRANCH  67  68
HETATM   68  C           0      -5.740  -0.397  10.161  0.00  0.00     0.115 C 
BRANCH  68  69
HETATM   69  C           0      -4.685   0.180  11.126  0.00  0.00     0.172 C 
HETATM   70  O           0      -5.074   0.793  12.155  0.00  0.00    -0.648 OA
HETATM   71  O           0      -3.470   0.005  10.791  0.00  0.00    -0.648 OA
ENDBRANCH  68  69
ENDBRANCH  67  68
ENDBRANCH  62  67
ENDBRANCH  60  62
ENDBRANCH  57  58
ENDBRANCH  55  57
ENDBRANCH  52  53
BRANCH  52  72
HETATM   72  C           0      -0.157   0.239  11.725  0.00  0.00     0.038 C 
BRANCH  72  73
HETATM   73  C           0       0.810   1.287  12.308  0.00  0.00    -0.020 C 
HETATM   74  C           0       2.148   1.338  11.555  0.00  0.00     0.009 C 
HETATM   75  C           0       0.126   2.663  12.301  0.00  0.00     0.009 C 
ENDBRANCH  72  73
ENDBRANCH  52  72
ENDBRANCH  50  52
ENDBRANCH  41  48
ENDBRANCH   1  41
TORSDOF 28
ENDMDL
MODEL 3
REMARK VINA RESULT:      -6.1     17.324     21.350
REMARK  28 active torsions:
REMARK  status: ('A' for Active; 'I' for Inactive)
REMARK       I    between atoms: C_1  and  N_3 
REMARK    1  A    between atoms: C_1  and  C_41 
REMARK    2  A    between atoms: N_3  and  C_5 
REMARK    3  A    between atoms: C_5  and  C_6 
REMARK    4  A    between atoms: C_5  and  C_18 
REMARK       I    between atoms: C_18  and  N_19 
REMARK    5  A    between atoms: C_20  and  C_25 
REMARK       I    between atoms: C_25  and  N_26 
REMARK    6  A    between atoms: N_26  and  C_29 
REMARK    7  A    between atoms: C_29  and  C_30 
REMARK    8  A    between atoms: C_29  and  C_38 
REMARK       I    between atoms: C_30  and  N_31 
REMARK    9  A    between atoms: N_31  and  C_34 
REMARK   10  A    between atoms: C_34  and  C_35 
REMARK   11  A    between atoms: C_38  and  O_39 
REMARK   12  A    between atoms: C_6  and  C_7 
REMARK   13  A    between atoms: C_7  and  C_8 
REMARK   14  A    between atoms: C_8  and  N_9 
REMARK       I    between atoms: N_9  and  C_10 
REMARK       I    between atoms: C_10  and  N_12 
REMARK   15  A    between atoms: C_41  and  C_42 
REMARK   16  A    between atoms: C_41  and  N_48 
REMARK       I    between atoms: N_48  and  C_50 
REMARK   17  A    between atoms: C_50  and  C_52 
REMARK   18  A    between atoms: C_52  and  N_53 
REMARK   19  A    between atoms: C_52  and  C_72 
REMARK       I    between atoms: N_53  and  C_55 
REMARK   20  A    between atoms: C_55  and  C_57 
REMARK   21  A    between atoms: C_57  and  N_58 
REMARK       I    between atoms: N_58  and  C_60 
REMARK   22  A    between atoms: C_60  and  C_62 
REMARK   23  A    between atoms: C_62  and  N_63 
REMARK   24  A    between atoms: C_62  and  C_67 
REMARK   25  A    between atoms: C_67  and  C_68 
REMARK   26  A    between atoms: C_68  and  C_69 
REMARK   27  A    between atoms: C_72  and  C_73 
REMARK   28  A    between atoms: C_42  and  C_43 
REMARK       I    between atoms: C_43  and  N_44 
ROOT
HETATM    1  C           0      -1.730 -19.839   5.347  0.00  0.00     0.241 C 
HETATM    2  O           0      -1.952 -19.781   4.132  0.00  0.00    -0.271 OA
HETATM    3  N           0      -2.026 -20.941   6.074  0.00  0.00    -0.346 N 
HETATM    4  H           0      -1.862 -20.936   7.074  0.00  0.00     0.163 HD
ENDROOT
BRANCH   3   5
HETATM    5  C           0      -2.442 -22.174   5.408  0.00  0.00     0.176 C 
BRANCH   5   6
HETATM    6  C           0      -1.864 -23.418   6.103  0.00  0.00     0.036 C 
BRANCH   6   7
HETATM    7  C           0      -0.920 -23.021   7.243  0.00  0.00     0.023 C 
BRANCH   7   8
HETATM    8  C           0       0.537 -23.429   7.021  0.00  0.00     0.138 C 
BRANCH   8   9
HETATM    9  N           0       1.203 -22.321   6.342  0.00  0.00    -0.227 N 
HETATM   10  C           0       1.524 -22.253   5.053  0.00  0.00     0.665 C 
HETATM   11  N           0       1.305 -23.277   4.218  0.00  0.00    -0.235 N 
HETATM   12  N           0       2.070 -21.107   4.606  0.00  0.00    -0.235 N 
HETATM   13  H           0       1.419 -23.161   3.222  0.00  0.00     0.174 HD
HETATM   14  H           0       0.825 -24.105   4.531  0.00  0.00     0.174 HD
HETATM   15  H           0       2.547 -21.085   3.718  0.00  0.00     0.174 HD
HETATM   16  H           0       2.326 -20.427   5.326  0.00  0.00     0.174 HD
HETATM   17  H           0       1.491 -21.492   6.890  0.00  0.00     0.177 HD
ENDBRANCH   8   9
ENDBRANCH   7   8
ENDBRANCH   6   7
ENDBRANCH   5   6
BRANCH   5  18
HETATM   18  C           0      -3.955 -22.291   5.118  0.00  0.00     0.243 C 
HETATM   19  N           0      -4.396 -22.598   3.869  0.00  0.00    -0.337 N 
HETATM   20  C           0      -5.835 -22.825   3.648  0.00  0.00     0.179 C 
HETATM   21  C           0      -3.716 -22.316   2.587  0.00  0.00     0.127 C 
HETATM   22  C           0      -6.079 -22.417   2.168  0.00  0.00     0.037 C 
HETATM   23  C           0      -4.819 -21.631   1.773  0.00  0.00     0.022 C 
HETATM   24  O           0      -4.726 -22.164   6.074  0.00  0.00    -0.271 OA
BRANCH  20  25
HETATM   25  C           0      -6.308 -24.269   3.892  0.00  0.00     0.241 C 
HETATM   26  N           0      -6.873 -24.557   5.092  0.00  0.00    -0.344 N 
HETATM   27  H           0      -6.979 -23.824   5.789  0.00  0.00     0.163 HD
HETATM   28  O           0      -6.145 -25.107   3.002  0.00  0.00    -0.271 OA
BRANCH  26  29
HETATM   29  C           0      -7.181 -25.924   5.488  0.00  0.00     0.200 C 
BRANCH  29  30
HETATM   30  C           0      -8.649 -26.197   5.870  0.00  0.00     0.242 C 
HETATM   31  N           0      -9.521 -25.183   5.783  0.00  0.00    -0.354 N 
HETATM   32  H           0      -9.267 -24.263   5.431  0.00  0.00     0.162 HD
HETATM   33  O           0      -8.964 -27.337   6.245  0.00  0.00    -0.271 OA
BRANCH  31  34
HETATM   34  C           0     -10.938 -25.320   6.065  0.00  0.00     0.203 C 
BRANCH  34  35
HETATM   35  C           0     -11.736 -25.521   4.746  0.00  0.00     0.307 C 
HETATM   36  O           0     -11.746 -26.689   4.272  0.00  0.00    -0.186 OA
HETATM   37  O           0     -12.290 -24.489   4.295  0.00  0.00    -0.186 OA
ENDBRANCH  34  35
ENDBRANCH  31  34
ENDBRANCH  29  30
BRANCH  29  38
HETATM   38  C           0      -6.258 -26.390   6.635  0.00  0.00     0.199 C 
BRANCH  38  39
HETATM   39  O           0      -5.320 -25.402   7.020  0.00  0.00    -0.398 OA
HETATM   40  H           0      -5.312 -24.682   6.366  0.00  0.00     0.209 HD
ENDBRANCH  38  39
ENDBRANCH  29  38
ENDBRANCH  26  29
ENDBRANCH  20  25
ENDBRANCH   5  18
ENDBRANCH   3   5
BRANCH   1  41
HETATM   41  C           0      -1.056 -18.667   6.092  0.00  0.00     0.185 C 
BRANCH  41  42
HETATM   42  C           0      -0.082 -19.146   7.185  0.00  0.00     0.137 C 
BRANCH  42  43
HETATM   43  C           0       1.364 -18.684   7.003  0.00  0.00     0.217 C 
HETATM   44  N           0       1.486 -17.417   6.552  0.00  0.00    -0.370 N 
HETATM   45  H           0       2.414 -17.096   6.316  0.00  0.00     0.159 HD
HETATM   46  H           0       0.676 -16.842   6.288  0.00  0.00     0.159 HD
HETATM   47  O           0       2.321 -19.432   7.219  0.00  0.00    -0.274 OA
ENDBRANCH  42  43
ENDBRANCH  41  42
BRANCH  41  48
HETATM   48  N           0      -2.029 -17.791   6.733  0.00  0.00    -0.346 N 
HETATM   49  H           0      -2.814 -18.216   7.211  0.00  0.00     0.163 HD
HETATM   50  C           0      -1.997 -16.445   6.646  0.00  0.00     0.241 C 
HETATM   51  O           0      -1.149 -15.828   5.990  0.00  0.00    -0.271 OA
BRANCH  50  52
HETATM   52  C           0      -3.071 -15.679   7.441  0.00  0.00     0.177 C 
BRANCH  52  53
HETATM   53  N           0      -4.423 -15.979   6.982  0.00  0.00    -0.346 N 
HETATM   54  H           0      -4.688 -16.946   6.844  0.00  0.00     0.163 HD
HETATM   55  C           0      -5.372 -15.012   6.857  0.00  0.00     0.236 C 
HETATM   56  O           0      -5.161 -13.830   7.119  0.00  0.00    -0.272 OA
BRANCH  55  57
HETATM   57  C           0      -6.760 -15.469   6.389  0.00  0.00     0.225 C 
BRANCH  57  58
HETATM   58  N           0      -6.880 -16.911   6.185  0.00  0.00    -0.351 N 
HETATM   59  H           0      -6.870 -17.496   7.009  0.00  0.00     0.163 HD
HETATM   60  C           0      -7.283 -17.382   4.982  0.00  0.00     0.248 C 
HETATM   61  O           0      -7.467 -16.626   4.022  0.00  0.00    -0.271 OA
BRANCH  60  62
HETATM   62  C           0      -7.496 -18.885   4.765  0.00  0.00     0.275 C 
BRANCH  62  63
HETATM   63  N           0      -6.488 -19.743   5.512  0.00  0.00    -0.066 N 
HETATM   64  H           0      -6.891 -20.190   6.342  0.00  0.00     0.275 HD
HETATM   65  H           0      -6.059 -20.473   4.935  0.00  0.00     0.275 HD
HETATM   66  H           0      -5.717 -19.153   5.842  0.00  0.00     0.275 HD
ENDBRANCH  62  63
BRANCH  62  67
HETATM   67  C           0      -8.913 -19.388   5.086  0.00  0.00     0.053 C 
BRANCH  67  68
HETATM   68  C           0      -9.423 -20.488   4.147  0.00  0.00     0.115 C 
BRANCH  68  69
HETATM   69  C           0      -9.156 -21.945   4.573  0.00  0.00     0.172 C 
HETATM   70  O           0      -9.457 -22.875   3.780  0.00  0.00    -0.648 OA
HETATM   71  O           0      -8.657 -22.102   5.734  0.00  0.00    -0.648 OA
ENDBRANCH  68  69
ENDBRANCH  67  68
ENDBRANCH  62  67
ENDBRANCH  60  62
ENDBRANCH  57  58
ENDBRANCH  55  57
ENDBRANCH  52  53
BRANCH  52  72
HETATM   72  C           0      -2.976 -15.970   8.957  0.00  0.00     0.038 C 
BRANCH  72  73
HETATM   73  C           0      -2.798 -14.757   9.891  0.00  0.00    -0.020 C 
HETATM   74  C           0      -2.162 -13.554   9.180  0.00  0.00     0.009 C 
HETATM   75  C           0      -4.161 -14.380  10.492  0.00  0.00     0.009 C 
ENDBRANCH  72  73
ENDBRANCH  52  72
ENDBRANCH  50  52
ENDBRANCH  41  48
ENDBRANCH   1  41
TORSDOF 28
ENDMDL
MODEL 4
REMARK VINA RESULT:      -6.1      6.746     14.217
REMARK  28 active torsions:
REMARK  status: ('A' for Active; 'I' for Inactive)
REMARK       I    between atoms: C_1  and  N_3 
REMARK    1  A    between atoms: C_1  and  C_41 
REMARK    2  A    between atoms: N_3  and  C_5 
REMARK    3  A    between atoms: C_5  and  C_6 
REMARK    4  A    between atoms: C_5  and  C_18 
REMARK       I    between atoms: C_18  and  N_19 
REMARK    5  A    between atoms: C_20  and  C_25 
REMARK       I    between atoms: C_25  and  N_26 
REMARK    6  A    between atoms: N_26  and  C_29 
REMARK    7  A    between atoms: C_29  and  C_30 
REMARK    8  A    between atoms: C_29  and  C_38 
REMARK       I    between atoms: C_30  and  N_31 
REMARK    9  A    between atoms: N_31  and  C_34 
REMARK   10  A    between atoms: C_34  and  C_35 
REMARK   11  A    between atoms: C_38  and  O_39 
REMARK   12  A    between atoms: C_6  and  C_7 
REMARK   13  A    between atoms: C_7  and  C_8 
REMARK   14  A    between atoms: C_8  and  N_9 
REMARK       I    between atoms: N_9  and  C_10 
REMARK       I    between atoms: C_10  and  N_12 
REMARK   15  A    between atoms: C_41  and  C_42 
REMARK   16  A    between atoms: C_41  and  N_48 
REMARK       I    between atoms: N_48  and  C_50 
REMARK   17  A    between atoms: C_50  and  C_52 
REMARK   18  A    between atoms: C_52  and  N_53 
REMARK   19  A    between atoms: C_52  and  C_72 
REMARK       I    between atoms: N_53  and  C_55 
REMARK   20  A    between atoms: C_55  and  C_57 
REMARK   21  A    between atoms: C_57  and  N_58 
REMARK       I    between atoms: N_58  and  C_60 
REMARK   22  A    between atoms: C_60  and  C_62 
REMARK   23  A    between atoms: C_62  and  N_63 
REMARK   24  A    between atoms: C_62  and  C_67 
REMARK   25  A    between atoms: C_67  and  C_68 
REMARK   26  A    between atoms: C_68  and  C_69 
REMARK   27  A    between atoms: C_72  and  C_73 
REMARK   28  A    between atoms: C_42  and  C_43 
REMARK       I    between atoms: C_43  and  N_44 
ROOT
HETATM    1  C           0      -7.917  -3.748   9.866  0.00  0.00     0.241 C 
HETATM    2  O           0      -8.793  -3.811  10.736  0.00  0.00    -0.271 OA
HETATM    3  N           0      -8.114  -4.239   8.619  0.00  0.00    -0.346 N 
HETATM    4  H           0      -7.359  -4.200   7.945  0.00  0.00     0.163 HD
ENDROOT
BRANCH   3   5
HETATM    5  C           0      -9.442  -4.690   8.206  0.00  0.00     0.176 C 
BRANCH   5   6
HETATM    6  C           0      -9.938  -3.930   6.965  0.00  0.00     0.036 C 
BRANCH   6   7
HETATM    7  C           0      -9.070  -4.250   5.742  0.00  0.00     0.023 C 
BRANCH   7   8
HETATM    8  C           0      -9.824  -4.932   4.600  0.00  0.00     0.138 C 
BRANCH   8   9
HETATM    9  N           0      -8.882  -5.817   3.920  0.00  0.00    -0.227 N 
HETATM   10  C           0      -8.343  -5.634   2.719  0.00  0.00     0.665 C 
HETATM   11  N           0      -8.675  -4.589   1.948  0.00  0.00    -0.235 N 
HETATM   12  N           0      -7.434  -6.534   2.300  0.00  0.00    -0.235 N 
HETATM   13  H           0      -8.156  -4.385   1.107  0.00  0.00     0.174 HD
HETATM   14  H           0      -9.295  -3.872   2.290  0.00  0.00     0.174 HD
HETATM   15  H           0      -7.180  -6.584   1.325  0.00  0.00     0.174 HD
HETATM   16  H           0      -7.334  -7.368   2.883  0.00  0.00     0.174 HD
HETATM   17  H           0      -8.595  -6.698   4.378  0.00  0.00     0.177 HD
ENDBRANCH   8   9
ENDBRANCH   7   8
ENDBRANCH   6   7
ENDBRANCH   5   6
BRANCH   5  18
HETATM   18  C           0      -9.614  -6.220   8.088  0.00  0.00     0.243 C 
HETATM   19  N           0     -10.815  -6.754   7.734  0.00  0.00    -0.337 N 
HETATM   20  C           0     -10.920  -8.206   7.508  0.00  0.00     0.179 C 
HETATM   21  C           0     -12.154  -6.169   7.959  0.00  0.00     0.127 C 
HETATM   22  C           0     -12.392  -8.557   7.858  0.00  0.00     0.037 C 
HETATM   23  C           0     -12.910  -7.326   8.619  0.00  0.00     0.022 C 
HETATM   24  O           0      -8.610  -6.918   8.259  0.00  0.00    -0.271 OA
BRANCH  20  25
HETATM   25  C           0     -10.583  -8.665   6.079  0.00  0.00     0.241 C 
HETATM   26  N           0      -9.814  -9.774   5.933  0.00  0.00    -0.344 N 
HETATM   27  H           0      -9.491 -10.276   6.756  0.00  0.00     0.163 HD
HETATM   28  O           0     -11.007  -8.006   5.126  0.00  0.00    -0.271 OA
BRANCH  26  29
HETATM   29  C           0      -9.289 -10.181   4.638  0.00  0.00     0.200 C 
BRANCH  29  30
HETATM   30  C           0      -9.647 -11.610   4.187  0.00  0.00     0.242 C 
HETATM   31  N           0      -8.652 -12.409   3.776  0.00  0.00    -0.354 N 
HETATM   32  H           0      -7.674 -12.130   3.798  0.00  0.00     0.162 HD
HETATM   33  O           0     -10.836 -11.963   4.216  0.00  0.00    -0.271 OA
BRANCH  31  34
HETATM   34  C           0      -8.848 -13.789   3.373  0.00  0.00     0.203 C 
BRANCH  34  35
HETATM   35  C           0      -7.844 -14.718   4.114  0.00  0.00     0.307 C 
HETATM   36  O           0      -7.074 -14.159   4.942  0.00  0.00    -0.186 OA
HETATM   37  O           0      -7.912 -15.931   3.803  0.00  0.00    -0.186 OA
ENDBRANCH  34  35
ENDBRANCH  31  34
ENDBRANCH  29  30
BRANCH  29  38
HETATM   38  C           0      -7.757  -9.993   4.577  0.00  0.00     0.199 C 
BRANCH  38  39
HETATM   39  O           0      -7.380  -8.679   4.212  0.00  0.00    -0.398 OA
HETATM   40  H           0      -6.469  -8.680   3.873  0.00  0.00     0.209 HD
ENDBRANCH  38  39
ENDBRANCH  29  38
ENDBRANCH  26  29
ENDBRANCH  20  25
ENDBRANCH   5  18
ENDBRANCH   3   5
BRANCH   1  41
HETATM   41  C           0      -6.565  -3.059  10.142  0.00  0.00     0.185 C 
BRANCH  41  42
HETATM   42  C           0      -6.637  -2.067  11.319  0.00  0.00     0.137 C 
BRANCH  42  43
HETATM   43  C           0      -6.211  -2.642  12.670  0.00  0.00     0.217 C 
HETATM   44  N           0      -5.703  -1.727  13.523  0.00  0.00    -0.370 N 
HETATM   45  H           0      -5.310  -2.069  14.389  0.00  0.00     0.159 HD
HETATM   46  H           0      -5.551  -0.746  13.259  0.00  0.00     0.159 HD
HETATM   47  O           0      -6.297  -3.846  12.923  0.00  0.00    -0.274 OA
ENDBRANCH  42  43
ENDBRANCH  41  42
BRANCH  41  48
HETATM   48  N           0      -6.077  -2.321   8.983  0.00  0.00    -0.346 N 
HETATM   49  H           0      -5.134  -2.501   8.663  0.00  0.00     0.163 HD
HETATM   50  C           0      -6.775  -1.343   8.370  0.00  0.00     0.241 C 
HETATM   51  O           0      -7.889  -0.963   8.751  0.00  0.00    -0.271 OA
BRANCH  50  52
HETATM   52  C           0      -6.128  -0.715   7.121  0.00  0.00     0.177 C 
BRANCH  52  53
HETATM   53  N           0      -4.685  -0.549   7.265  0.00  0.00    -0.346 N 
HETATM   54  H           0      -4.077  -1.311   6.990  0.00  0.00     0.163 HD
HETATM   55  C           0      -4.131   0.636   7.636  0.00  0.00     0.236 C 
HETATM   56  O           0      -4.796   1.641   7.873  0.00  0.00    -0.272 OA
BRANCH  55  57
HETATM   57  C           0      -2.599   0.679   7.725  0.00  0.00     0.225 C 
BRANCH  57  58
HETATM   58  N           0      -2.068   0.416   9.061  0.00  0.00    -0.351 N 
HETATM   59  H           0      -2.674  -0.061   9.713  0.00  0.00     0.163 HD
HETATM   60  C           0      -0.739   0.542   9.285  0.00  0.00     0.248 C 
HETATM   61  O           0       0.026   0.962   8.410  0.00  0.00    -0.271 OA
BRANCH  60  62
HETATM   62  C           0      -0.144   0.194  10.654  0.00  0.00     0.275 C 
BRANCH  62  63
HETATM   63  N           0      -0.729   1.022  11.786  0.00  0.00    -0.066 N 
HETATM   64  H           0      -0.152   1.838  12.016  0.00  0.00     0.275 HD
HETATM   65  H           0      -1.684   1.348  11.609  0.00  0.00     0.275 HD
HETATM   66  H           0      -0.779   0.450  12.636  0.00  0.00     0.275 HD
ENDBRANCH  62  63
BRANCH  62  67
HETATM   67  C           0      -0.224  -1.294  11.033  0.00  0.00     0.053 C 
BRANCH  67  68
HETATM   68  C           0      -1.084  -1.588  12.268  0.00  0.00     0.115 C 
BRANCH  68  69
HETATM   69  C           0      -2.590  -1.810  12.029  0.00  0.00     0.172 C 
HETATM   70  O           0      -3.307  -0.825  11.710  0.00  0.00    -0.648 OA
HETATM   71  O           0      -3.011  -3.000  12.198  0.00  0.00    -0.648 OA
ENDBRANCH  68  69
ENDBRANCH  67  68
ENDBRANCH  62  67
ENDBRANCH  60  62
ENDBRANCH  57  58
ENDBRANCH  55  57
ENDBRANCH  52  53
BRANCH  52  72
HETATM   72  C           0      -6.416  -1.547   5.849  0.00  0.00     0.038 C 
BRANCH  72  73
HETATM   73  C           0      -6.916  -0.779   4.611  0.00  0.00    -0.020 C 
HETATM   74  C           0      -6.035   0.433   4.273  0.00  0.00     0.009 C 
HETATM   75  C           0      -6.998  -1.745   3.418  0.00  0.00     0.009 C 
ENDBRANCH  72  73
ENDBRANCH  52  72
ENDBRANCH  50  52
ENDBRANCH  41  48
ENDBRANCH   1  41
TORSDOF 28
ENDMDL
MODEL 5
REMARK VINA RESULT:      -5.9      3.309      5.064
REMARK  28 active torsions:
REMARK  status: ('A' for Active; 'I' for Inactive)
REMARK       I    between atoms: C_1  and  N_3 
REMARK    1  A    between atoms: C_1  and  C_41 
REMARK    2  A    between atoms: N_3  and  C_5 
REMARK    3  A    between atoms: C_5  and  C_6 
REMARK    4  A    between atoms: C_5  and  C_18 
REMARK       I    between atoms: C_18  and  N_19 
REMARK    5  A    between atoms: C_20  and  C_25 
REMARK       I    between atoms: C_25  and  N_26 
REMARK    6  A    between atoms: N_26  and  C_29 
REMARK    7  A    between atoms: C_29  and  C_30 
REMARK    8  A    between atoms: C_29  and  C_38 
REMARK       I    between atoms: C_30  and  N_31 
REMARK    9  A    between atoms: N_31  and  C_34 
REMARK   10  A    between atoms: C_34  and  C_35 
REMARK   11  A    between atoms: C_38  and  O_39 
REMARK   12  A    between atoms: C_6  and  C_7 
REMARK   13  A    between atoms: C_7  and  C_8 
REMARK   14  A    between atoms: C_8  and  N_9 
REMARK       I    between atoms: N_9  and  C_10 
REMARK       I    between atoms: C_10  and  N_12 
REMARK   15  A    between atoms: C_41  and  C_42 
REMARK   16  A    between atoms: C_41  and  N_48 
REMARK       I    between atoms: N_48  and  C_50 
REMARK   17  A    between atoms: C_50  and  C_52 
REMARK   18  A    between atoms: C_52  and  N_53 
REMARK   19  A    between atoms: C_52  and  C_72 
REMARK       I    between atoms: N_53  and  C_55 
REMARK   20  A    between atoms: C_55  and  C_57 
REMARK   21  A    between atoms: C_57  and  N_58 
REMARK       I    between atoms: N_58  and  C_60 
REMARK   22  A    between atoms: C_60  and  C_62 
REMARK   23  A    between atoms: C_62  and  N_63 
REMARK   24  A    between atoms: C_62  and  C_67 
REMARK   25  A    between atoms: C_67  and  C_68 
REMARK   26  A    between atoms: C_68  and  C_69 
REMARK   27  A    between atoms: C_72  and  C_73 
REMARK   28  A    between atoms: C_42  and  C_43 
REMARK       I    between atoms: C_43  and  N_44 
ROOT
HETATM    1  C           0       4.272  -3.339   9.535  0.00  0.00     0.241 C 
HETATM    2  O           0       4.863  -2.298   9.845  0.00  0.00    -0.271 OA
HETATM    3  N           0       4.902  -4.537   9.516  0.00  0.00    -0.346 N 
HETATM    4  H           0       4.392  -5.362   9.222  0.00  0.00     0.163 HD
ENDROOT
BRANCH   3   5
HETATM    5  C           0       6.257  -4.666  10.048  0.00  0.00     0.176 C 
BRANCH   5   6
HETATM    6  C           0       6.270  -5.412  11.392  0.00  0.00     0.036 C 
BRANCH   6   7
HETATM    7  C           0       4.862  -5.486  11.993  0.00  0.00     0.023 C 
BRANCH   7   8
HETATM    8  C           0       4.169  -6.835  11.802  0.00  0.00     0.138 C 
BRANCH   8   9
HETATM    9  N           0       2.782  -6.567  11.431  0.00  0.00    -0.227 N 
HETATM   10  C           0       1.692  -7.020  12.041  0.00  0.00     0.665 C 
HETATM   11  N           0       1.765  -7.863  13.081  0.00  0.00    -0.235 N 
HETATM   12  N           0       0.499  -6.594  11.586  0.00  0.00    -0.235 N 
HETATM   13  H           0       0.942  -8.085  13.622  0.00  0.00     0.174 HD
HETATM   14  H           0       2.656  -8.122  13.474  0.00  0.00     0.174 HD
HETATM   15  H           0      -0.346  -7.082  11.842  0.00  0.00     0.174 HD
HETATM   16  H           0       0.522  -6.063  10.712  0.00  0.00     0.174 HD
HETATM   17  H           0       2.585  -5.984  10.600  0.00  0.00     0.177 HD
ENDBRANCH   8   9
ENDBRANCH   7   8
ENDBRANCH   6   7
ENDBRANCH   5   6
BRANCH   5  18
HETATM   18  C           0       7.312  -5.196   9.051  0.00  0.00     0.243 C 
HETATM   19  N           0       8.171  -4.340   8.436  0.00  0.00    -0.337 N 
HETATM   20  C           0       9.245  -4.882   7.587  0.00  0.00     0.179 C 
HETATM   21  C           0       7.940  -2.912   8.127  0.00  0.00     0.127 C 
HETATM   22  C           0       9.515  -3.774   6.531  0.00  0.00     0.037 C 
HETATM   23  C           0       8.303  -2.836   6.640  0.00  0.00     0.022 C 
HETATM   24  O           0       7.381  -6.419   8.898  0.00  0.00    -0.271 OA
BRANCH  20  25
HETATM   25  C           0      10.542  -5.242   8.333  0.00  0.00     0.241 C 
HETATM   26  N           0      10.665  -6.503   8.819  0.00  0.00    -0.344 N 
HETATM   27  H           0       9.917  -7.176   8.674  0.00  0.00     0.163 HD
HETATM   28  O           0      11.407  -4.374   8.474  0.00  0.00    -0.271 OA
BRANCH  26  29
HETATM   29  C           0      11.765  -6.885   9.694  0.00  0.00     0.200 C 
BRANCH  29  30
HETATM   30  C           0      12.334  -8.300   9.478  0.00  0.00     0.242 C 
HETATM   31  N           0      13.205  -8.773  10.380  0.00  0.00    -0.354 N 
HETATM   32  H           0      13.463  -8.261  11.221  0.00  0.00     0.162 HD
HETATM   33  O           0      11.971  -8.941   8.479  0.00  0.00    -0.271 OA
BRANCH  31  34
HETATM   34  C           0      13.776 -10.105  10.319  0.00  0.00     0.203 C 
BRANCH  34  35
HETATM   35  C           0      12.957 -11.087  11.205  0.00  0.00     0.307 C 
HETATM   36  O           0      13.179 -12.316  11.028  0.00  0.00    -0.186 OA
HETATM   37  O           0      12.159 -10.544  12.006  0.00  0.00    -0.186 OA
ENDBRANCH  34  35
ENDBRANCH  31  34
ENDBRANCH  29  30
BRANCH  29  38
HETATM   38  C           0      11.377  -6.710  11.178  0.00  0.00     0.199 C 
BRANCH  38  39
HETATM   39  O           0      10.845  -7.891  11.749  0.00  0.00    -0.398 OA
HETATM   40  H           0      11.147  -8.666  11.245  0.00  0.00     0.209 HD
ENDBRANCH  38  39
ENDBRANCH  29  38
ENDBRANCH  26  29
ENDBRANCH  20  25
ENDBRANCH   5  18
ENDBRANCH   3   5
BRANCH   1  41
HETATM   41  C           0       2.766  -3.333   9.199  0.00  0.00     0.185 C 
BRANCH  41  42
HETATM   42  C           0       2.453  -4.069   7.883  0.00  0.00     0.137 C 
BRANCH  42  43
HETATM   43  C           0       2.039  -5.532   8.048  0.00  0.00     0.217 C 
HETATM   44  N           0       0.713  -5.749   7.910  0.00  0.00    -0.370 N 
HETATM   45  H           0       0.372  -6.678   8.113  0.00  0.00     0.159 HD
HETATM   46  H           0       0.037  -4.987   7.778  0.00  0.00     0.159 HD
HETATM   47  O           0       2.856  -6.415   8.320  0.00  0.00    -0.274 OA
ENDBRANCH  42  43
ENDBRANCH  41  42
BRANCH  41  48
HETATM   48  N           0       2.236  -1.980   9.075  0.00  0.00    -0.346 N 
HETATM   49  H           0       2.552  -1.411   8.300  0.00  0.00     0.163 HD
HETATM   50  C           0       1.421  -1.409   9.986  0.00  0.00     0.241 C 
HETATM   51  O           0       1.067  -1.974  11.028  0.00  0.00    -0.271 OA
BRANCH  50  52
HETATM   52  C           0       0.907   0.006   9.659  0.00  0.00     0.177 C 
BRANCH  52  53
HETATM   53  N           0      -0.549   0.091   9.692  0.00  0.00    -0.346 N 
HETATM   54  H           0      -1.035  -0.185  10.536  0.00  0.00     0.163 HD
HETATM   55  C           0      -1.260   0.645   8.673  0.00  0.00     0.236 C 
HETATM   56  O           0      -0.735   1.110   7.665  0.00  0.00    -0.272 OA
BRANCH  55  57
HETATM   57  C           0      -2.784   0.693   8.848  0.00  0.00     0.225 C 
BRANCH  57  58
HETATM   58  N           0      -3.519   1.015   7.626  0.00  0.00    -0.351 N 
HETATM   59  H           0      -2.992   1.043   6.765  0.00  0.00     0.163 HD
HETATM   60  C           0      -4.872   0.971   7.632  0.00  0.00     0.248 C 
HETATM   61  O           0      -5.506   0.754   8.670  0.00  0.00    -0.271 OA
BRANCH  60  62
HETATM   62  C           0      -5.665   1.224   6.345  0.00  0.00     0.275 C 
BRANCH  62  63
HETATM   63  N           0      -4.786   1.288   5.106  0.00  0.00    -0.066 N 
HETATM   64  H           0      -3.948   1.862   5.248  0.00  0.00     0.275 HD
HETATM   65  H           0      -4.488   0.369   4.763  0.00  0.00     0.275 HD
HETATM   66  H           0      -5.310   1.720   4.338  0.00  0.00     0.275 HD
ENDBRANCH  62  63
BRANCH  62  67
HETATM   67  C           0      -6.813   0.234   6.090  0.00  0.00     0.053 C 
BRANCH  67  68
HETATM   68  C           0      -6.361  -1.150   5.608  0.00  0.00     0.115 C 
BRANCH  68  69
HETATM   69  C           0      -6.560  -1.463   4.111  0.00  0.00     0.172 C 
HETATM   70  O           0      -7.590  -2.091   3.753  0.00  0.00    -0.648 OA
HETATM   71  O           0      -5.631  -1.070   3.333  0.00  0.00    -0.648 OA
ENDBRANCH  68  69
ENDBRANCH  67  68
ENDBRANCH  62  67
ENDBRANCH  60  62
ENDBRANCH  57  58
ENDBRANCH  55  57
ENDBRANCH  52  53
BRANCH  52  72
HETATM   72  C           0       1.496   1.064  10.620  0.00  0.00     0.038 C 
BRANCH  72  73
HETATM   73  C           0       2.401   2.145   9.999  0.00  0.00    -0.020 C 
HETATM   74  C           0       3.486   1.553   9.088  0.00  0.00     0.009 C 
HETATM   75  C           0       1.530   3.152   9.231  0.00  0.00     0.009 C 
ENDBRANCH  72  73
ENDBRANCH  52  72
ENDBRANCH  50  52
ENDBRANCH  41  48
ENDBRANCH   1  41
TORSDOF 28
ENDMDL
MODEL 6
REMARK VINA RESULT:      -5.9      3.491      6.373
REMARK  28 active torsions:
REMARK  status: ('A' for Active; 'I' for Inactive)
REMARK       I    between atoms: C_1  and  N_3 
REMARK    1  A    between atoms: C_1  and  C_41 
REMARK    2  A    between atoms: N_3  and  C_5 
REMARK    3  A    between atoms: C_5  and  C_6 
REMARK    4  A    between atoms: C_5  and  C_18 
REMARK       I    between atoms: C_18  and  N_19 
REMARK    5  A    between atoms: C_20  and  C_25 
REMARK       I    between atoms: C_25  and  N_26 
REMARK    6  A    between atoms: N_26  and  C_29 
REMARK    7  A    between atoms: C_29  and  C_30 
REMARK    8  A    between atoms: C_29  and  C_38 
REMARK       I    between atoms: C_30  and  N_31 
REMARK    9  A    between atoms: N_31  and  C_34 
REMARK   10  A    between atoms: C_34  and  C_35 
REMARK   11  A    between atoms: C_38  and  O_39 
REMARK   12  A    between atoms: C_6  and  C_7 
REMARK   13  A    between atoms: C_7  and  C_8 
REMARK   14  A    between atoms: C_8  and  N_9 
REMARK       I    between atoms: N_9  and  C_10 
REMARK       I    between atoms: C_10  and  N_12 
REMARK   15  A    between atoms: C_41  and  C_42 
REMARK   16  A    between atoms: C_41  and  N_48 
REMARK       I    between atoms: N_48  and  C_50 
REMARK   17  A    between atoms: C_50  and  C_52 
REMARK   18  A    between atoms: C_52  and  N_53 
REMARK   19  A    between atoms: C_52  and  C_72 
REMARK       I    between atoms: N_53  and  C_55 
REMARK   20  A    between atoms: C_55  and  C_57 
REMARK   21  A    between atoms: C_57  and  N_58 
REMARK       I    between atoms: N_58  and  C_60 
REMARK   22  A    between atoms: C_60  and  C_62 
REMARK   23  A    between atoms: C_62  and  N_63 
REMARK   24  A    between atoms: C_62  and  C_67 
REMARK   25  A    between atoms: C_67  and  C_68 
REMARK   26  A    between atoms: C_68  and  C_69 
REMARK   27  A    between atoms: C_72  and  C_73 
REMARK   28  A    between atoms: C_42  and  C_43 
REMARK       I    between atoms: C_43  and  N_44 
ROOT
HETATM    1  C           0       2.811  -2.910  12.737  0.00  0.00     0.241 C 
HETATM    2  O           0       2.803  -3.892  13.489  0.00  0.00    -0.271 OA
HETATM    3  N           0       3.607  -2.857  11.644  0.00  0.00    -0.346 N 
HETATM    4  H           0       3.611  -2.020  11.072  0.00  0.00     0.163 HD
ENDROOT
BRANCH   3   5
HETATM    5  C           0       4.346  -4.042  11.211  0.00  0.00     0.176 C 
BRANCH   5   6
HETATM    6  C           0       4.223  -4.264   9.695  0.00  0.00     0.036 C 
BRANCH   6   7
HETATM    7  C           0       2.827  -3.878   9.194  0.00  0.00     0.023 C 
BRANCH   7   8
HETATM    8  C           0       1.851  -5.051   9.095  0.00  0.00     0.138 C 
BRANCH   8   9
HETATM    9  N           0       1.069  -5.075  10.328  0.00  0.00    -0.227 N 
HETATM   10  C           0       1.209  -5.922  11.344  0.00  0.00     0.665 C 
HETATM   11  N           0       2.094  -6.929  11.306  0.00  0.00    -0.235 N 
HETATM   12  N           0       0.435  -5.729  12.428  0.00  0.00    -0.235 N 
HETATM   13  H           0       2.289  -7.472  12.133  0.00  0.00     0.174 HD
HETATM   14  H           0       2.728  -7.028  10.530  0.00  0.00     0.174 HD
HETATM   15  H           0       0.324  -6.464  13.109  0.00  0.00     0.174 HD
HETATM   16  H           0      -0.302  -5.028  12.328  0.00  0.00     0.174 HD
HETATM   17  H           0       0.303  -4.392  10.455  0.00  0.00     0.177 HD
ENDBRANCH   8   9
ENDBRANCH   7   8
ENDBRANCH   6   7
ENDBRANCH   5   6
BRANCH   5  18
HETATM   18  C           0       5.800  -4.138  11.721  0.00  0.00     0.243 C 
HETATM   19  N           0       6.614  -5.143  11.299  0.00  0.00    -0.337 N 
HETATM   20  C           0       8.031  -5.142  11.703  0.00  0.00     0.179 C 
HETATM   21  C           0       6.208  -6.491  10.846  0.00  0.00     0.127 C 
HETATM   22  C           0       8.440  -6.641  11.723  0.00  0.00     0.037 C 
HETATM   23  C           0       7.106  -7.404  11.688  0.00  0.00     0.022 C 
HETATM   24  O           0       6.201  -3.236  12.463  0.00  0.00    -0.271 OA
BRANCH  20  25
HETATM   25  C           0       8.967  -4.341  10.781  0.00  0.00     0.241 C 
HETATM   26  N           0       9.430  -4.952   9.661  0.00  0.00    -0.344 N 
HETATM   27  H           0       9.145  -5.905   9.452  0.00  0.00     0.163 HD
HETATM   28  O           0       9.272  -3.189  11.099  0.00  0.00    -0.271 OA
BRANCH  26  29
HETATM   29  C           0      10.460  -4.350   8.827  0.00  0.00     0.200 C 
BRANCH  29  30
HETATM   30  C           0       9.955  -3.474   7.664  0.00  0.00     0.242 C 
HETATM   31  N           0       9.505  -2.244   7.952  0.00  0.00    -0.354 N 
HETATM   32  H           0       9.530  -1.851   8.890  0.00  0.00     0.162 HD
HETATM   33  O           0       9.980  -3.939   6.514  0.00  0.00    -0.271 OA
BRANCH  31  34
HETATM   34  C           0       9.049  -1.303   6.946  0.00  0.00     0.203 C 
BRANCH  34  35
HETATM   35  C           0      10.236  -0.437   6.436  0.00  0.00     0.307 C 
HETATM   36  O           0      10.516   0.584   7.120  0.00  0.00    -0.186 OA
HETATM   37  O           0      10.790  -0.855   5.390  0.00  0.00    -0.186 OA
ENDBRANCH  34  35
ENDBRANCH  31  34
ENDBRANCH  29  30
BRANCH  29  38
HETATM   38  C           0      11.426  -5.422   8.279  0.00  0.00     0.199 C 
BRANCH  38  39
HETATM   39  O           0      12.510  -4.867   7.559  0.00  0.00    -0.398 OA
HETATM   40  H           0      12.281  -3.971   7.257  0.00  0.00     0.209 HD
ENDBRANCH  38  39
ENDBRANCH  29  38
ENDBRANCH  26  29
ENDBRANCH  20  25
ENDBRANCH   5  18
ENDBRANCH   3   5
BRANCH   1  41
HETATM   41  C           0       1.872  -1.710  12.980  0.00  0.00     0.185 C 
BRANCH  41  42
HETATM   42  C           0       0.498  -2.137  13.530  0.00  0.00     0.137 C 
BRANCH  42  43
HETATM   43  C           0      -0.611  -2.233  12.482  0.00  0.00     0.217 C 
HETATM   44  N           0      -1.786  -1.693  12.871  0.00  0.00    -0.370 N 
HETATM   45  H           0      -2.580  -1.822  12.259  0.00  0.00     0.159 HD
HETATM   46  H           0      -1.938  -1.316  13.814  0.00  0.00     0.159 HD
HETATM   47  O           0      -0.436  -2.793  11.397  0.00  0.00    -0.274 OA
ENDBRANCH  42  43
ENDBRANCH  41  42
BRANCH  41  48
HETATM   48  N           0       1.633  -0.944  11.763  0.00  0.00    -0.346 N 
HETATM   49  H           0       1.564  -1.446  10.888  0.00  0.00     0.163 HD
HETATM   50  C           0       1.594   0.404  11.722  0.00  0.00     0.241 C 
HETATM   51  O           0       1.782   1.119  12.714  0.00  0.00    -0.271 OA
BRANCH  50  52
HETATM   52  C           0       1.266   1.042  10.359  0.00  0.00     0.177 C 
BRANCH  52  53
HETATM   53  N           0       2.435   1.656   9.736  0.00  0.00    -0.346 N 
HETATM   54  H           0       3.118   1.059   9.286  0.00  0.00     0.163 HD
HETATM   55  C           0       2.570   3.005   9.635  0.00  0.00     0.236 C 
HETATM   56  O           0       1.728   3.796  10.053  0.00  0.00    -0.272 OA
BRANCH  55  57
HETATM   57  C           0       3.837   3.517   8.935  0.00  0.00     0.225 C 
BRANCH  57  58
HETATM   58  N           0       4.849   2.489   8.699  0.00  0.00    -0.351 N 
HETATM   59  H           0       4.640   1.787   8.004  0.00  0.00     0.163 HD
HETATM   60  C           0       6.103   2.668   9.176  0.00  0.00     0.248 C 
HETATM   61  O           0       6.391   3.638   9.885  0.00  0.00    -0.271 OA
BRANCH  60  62
HETATM   62  C           0       7.205   1.645   8.874  0.00  0.00     0.275 C 
BRANCH  62  63
HETATM   63  N           0       8.463   2.277   8.303  0.00  0.00    -0.066 N 
HETATM   64  H           0       9.310   1.995   8.809  0.00  0.00     0.275 HD
HETATM   65  H           0       8.609   2.083   7.307  0.00  0.00     0.275 HD
HETATM   66  H           0       8.400   3.297   8.386  0.00  0.00     0.275 HD
ENDBRANCH  62  63
BRANCH  62  67
HETATM   67  C           0       7.593   0.747  10.059  0.00  0.00     0.053 C 
BRANCH  67  68
HETATM   68  C           0       6.758  -0.534  10.183  0.00  0.00     0.115 C 
BRANCH  68  69
HETATM   69  C           0       5.321  -0.377  10.717  0.00  0.00     0.172 C 
HETATM   70  O           0       4.358  -0.489   9.914  0.00  0.00    -0.648 OA
HETATM   71  O           0       5.214  -0.120  11.960  0.00  0.00    -0.648 OA
ENDBRANCH  68  69
ENDBRANCH  67  68
ENDBRANCH  62  67
ENDBRANCH  60  62
ENDBRANCH  57  58
ENDBRANCH  55  57
ENDBRANCH  52  53
BRANCH  52  72
HETATM   72  C           0       0.655   0.014   9.379  0.00  0.00     0.038 C 
BRANCH  72  73
HETATM   73  C           0      -0.794   0.263   8.920  0.00  0.00    -0.020 C 
HETATM   74  C           0      -1.719   0.663  10.079  0.00  0.00     0.009 C 
HETATM   75  C           0      -0.798   1.337   7.821  0.00  0.00     0.009 C 
ENDBRANCH  72  73
ENDBRANCH  52  72
ENDBRANCH  50  52
ENDBRANCH  41  48
ENDBRANCH   1  41
TORSDOF 28
ENDMDL
MODEL 7
REMARK VINA RESULT:      -5.9      9.192     14.544
REMARK  28 active torsions:
REMARK  status: ('A' for Active; 'I' for Inactive)
REMARK       I    between atoms: C_1  and  N_3 
REMARK    1  A    between atoms: C_1  and  C_41 
REMARK    2  A    between atoms: N_3  and  C_5 
REMARK    3  A    between atoms: C_5  and  C_6 
REMARK    4  A    between atoms: C_5  and  C_18 
REMARK       I    between atoms: C_18  and  N_19 
REMARK    5  A    between atoms: C_20  and  C_25 
REMARK       I    between atoms: C_25  and  N_26 
REMARK    6  A    between atoms: N_26  and  C_29 
REMARK    7  A    between atoms: C_29  and  C_30 
REMARK    8  A    between atoms: C_29  and  C_38 
REMARK       I    between atoms: C_30  and  N_31 
REMARK    9  A    between atoms: N_31  and  C_34 
REMARK   10  A    between atoms: C_34  and  C_35 
REMARK   11  A    between atoms: C_38  and  O_39 
REMARK   12  A    between atoms: C_6  and  C_7 
REMARK   13  A    between atoms: C_7  and  C_8 
REMARK   14  A    between atoms: C_8  and  N_9 
REMARK       I    between atoms: N_9  and  C_10 
REMARK       I    between atoms: C_10  and  N_12 
REMARK   15  A    between atoms: C_41  and  C_42 
REMARK   16  A    between atoms: C_41  and  N_48 
REMARK       I    between atoms: N_48  and  C_50 
REMARK   17  A    between atoms: C_50  and  C_52 
REMARK   18  A    between atoms: C_52  and  N_53 
REMARK   19  A    between atoms: C_52  and  C_72 
REMARK       I    between atoms: N_53  and  C_55 
REMARK   20  A    between atoms: C_55  and  C_57 
REMARK   21  A    between atoms: C_57  and  N_58 
REMARK       I    between atoms: N_58  and  C_60 
REMARK   22  A    between atoms: C_60  and  C_62 
REMARK   23  A    between atoms: C_62  and  N_63 
REMARK   24  A    between atoms: C_62  and  C_67 
REMARK   25  A    between atoms: C_67  and  C_68 
REMARK   26  A    between atoms: C_68  and  C_69 
REMARK   27  A    between atoms: C_72  and  C_73 
REMARK   28  A    between atoms: C_42  and  C_43 
REMARK       I    between atoms: C_43  and  N_44 
ROOT
HETATM    1  C           0      -9.815  -1.452   3.503  0.00  0.00     0.241 C 
HETATM    2  O           0     -10.949  -1.079   3.821  0.00  0.00    -0.271 OA
HETATM    3  N           0      -9.610  -2.597   2.809  0.00  0.00    -0.346 N 
HETATM    4  H           0      -8.662  -2.887   2.598  0.00  0.00     0.163 HD
ENDROOT
BRANCH   3   5
HETATM    5  C           0     -10.742  -3.331   2.247  0.00  0.00     0.176 C 
BRANCH   5   6
HETATM    6  C           0     -10.689  -3.367   0.711  0.00  0.00     0.036 C 
BRANCH   6   7
HETATM    7  C           0     -11.813  -2.520   0.103  0.00  0.00     0.023 C 
BRANCH   7   8
HETATM    8  C           0     -11.370  -1.134  -0.367  0.00  0.00     0.138 C 
BRANCH   8   9
HETATM    9  N           0     -11.384  -0.252   0.797  0.00  0.00    -0.227 N 
HETATM   10  C           0     -10.859   0.967   0.880  0.00  0.00     0.665 C 
HETATM   11  N           0     -10.176   1.511  -0.137  0.00  0.00    -0.235 N 
HETATM   12  N           0     -11.046   1.650   2.024  0.00  0.00    -0.235 N 
HETATM   13  H           0      -9.909   2.483  -0.114  0.00  0.00     0.174 HD
HETATM   14  H           0     -10.102   1.035  -1.022  0.00  0.00     0.174 HD
HETATM   15  H           0     -10.478   2.456   2.233  0.00  0.00     0.174 HD
HETATM   16  H           0     -11.459   1.119   2.795  0.00  0.00     0.174 HD
HETATM   17  H           0     -11.821  -0.580   1.675  0.00  0.00     0.177 HD
ENDBRANCH   8   9
ENDBRANCH   7   8
ENDBRANCH   6   7
ENDBRANCH   5   6
BRANCH   5  18
HETATM   18  C           0     -11.010  -4.717   2.875  0.00  0.00     0.243 C 
HETATM   19  N           0      -9.982  -5.464   3.361  0.00  0.00    -0.337 N 
HETATM   20  C           0     -10.277  -6.724   4.066  0.00  0.00     0.179 C 
HETATM   21  C           0      -8.572  -5.439   2.918  0.00  0.00     0.127 C 
HETATM   22  C           0      -9.029  -7.617   3.821  0.00  0.00     0.037 C 
HETATM   23  C           0      -8.278  -6.923   2.674  0.00  0.00     0.022 C 
HETATM   24  O           0     -12.187  -5.074   2.976  0.00  0.00    -0.271 OA
BRANCH  20  25
HETATM   25  C           0     -10.544  -6.576   5.573  0.00  0.00     0.241 C 
HETATM   26  N           0      -9.508  -6.207   6.369  0.00  0.00    -0.344 N 
HETATM   27  H           0      -8.595  -6.030   5.959  0.00  0.00     0.163 HD
HETATM   28  O           0     -11.677  -6.810   6.002  0.00  0.00    -0.271 OA
BRANCH  26  29
HETATM   29  C           0      -9.612  -6.221   7.821  0.00  0.00     0.200 C 
BRANCH  29  30
HETATM   30  C           0      -8.869  -5.089   8.557  0.00  0.00     0.242 C 
HETATM   31  N           0      -9.204  -3.824   8.268  0.00  0.00    -0.354 N 
HETATM   32  H           0      -9.956  -3.584   7.627  0.00  0.00     0.162 HD
HETATM   33  O           0      -7.991  -5.390   9.380  0.00  0.00    -0.271 OA
BRANCH  31  34
HETATM   34  C           0      -8.617  -2.670   8.924  0.00  0.00     0.203 C 
BRANCH  34  35
HETATM   35  C           0      -7.660  -1.922   7.952  0.00  0.00     0.307 C 
HETATM   36  O           0      -6.624  -2.547   7.598  0.00  0.00    -0.186 OA
HETATM   37  O           0      -8.030  -0.769   7.622  0.00  0.00    -0.186 OA
ENDBRANCH  34  35
ENDBRANCH  31  34
ENDBRANCH  29  30
BRANCH  29  38
HETATM   38  C           0      -9.168  -7.583   8.396  0.00  0.00     0.199 C 
BRANCH  38  39
HETATM   39  O           0      -7.788  -7.835   8.207  0.00  0.00    -0.398 OA
HETATM   40  H           0      -7.539  -7.635   7.288  0.00  0.00     0.209 HD
ENDBRANCH  38  39
ENDBRANCH  29  38
ENDBRANCH  26  29
ENDBRANCH  20  25
ENDBRANCH   5  18
ENDBRANCH   3   5
BRANCH   1  41
HETATM   41  C           0      -8.570  -0.604   3.840  0.00  0.00     0.185 C 
BRANCH  41  42
HETATM   42  C           0      -7.352  -1.469   4.217  0.00  0.00     0.137 C 
BRANCH  42  43
HETATM   43  C           0      -6.032  -0.705   4.325  0.00  0.00     0.217 C 
HETATM   44  N           0      -5.320  -0.669   3.178  0.00  0.00    -0.370 N 
HETATM   45  H           0      -4.394  -0.268   3.221  0.00  0.00     0.159 HD
HETATM   46  H           0      -5.608  -1.172   2.330  0.00  0.00     0.159 HD
HETATM   47  O           0      -5.652  -0.205   5.387  0.00  0.00    -0.274 OA
ENDBRANCH  42  43
ENDBRANCH  41  42
BRANCH  41  48
HETATM   48  N           0      -8.812   0.311   4.948  0.00  0.00    -0.346 N 
HETATM   49  H           0      -9.132  -0.076   5.827  0.00  0.00     0.163 HD
HETATM   50  C           0      -8.727   1.653   4.844  0.00  0.00     0.241 C 
HETATM   51  O           0      -8.457   2.235   3.787  0.00  0.00    -0.271 OA
BRANCH  50  52
HETATM   52  C           0      -8.954   2.459   6.137  0.00  0.00     0.177 C 
BRANCH  52  53
HETATM   53  N           0      -7.706   2.766   6.829  0.00  0.00    -0.346 N 
HETATM   54  H           0      -6.883   2.977   6.279  0.00  0.00     0.163 HD
HETATM   55  C           0      -7.648   2.899   8.181  0.00  0.00     0.236 C 
HETATM   56  O           0      -8.629   2.773   8.909  0.00  0.00    -0.272 OA
BRANCH  55  57
HETATM   57  C           0      -6.277   3.247   8.777  0.00  0.00     0.225 C 
BRANCH  57  58
HETATM   58  N           0      -5.851   2.361   9.859  0.00  0.00    -0.351 N 
HETATM   59  H           0      -6.220   2.547  10.781  0.00  0.00     0.163 HD
HETATM   60  C           0      -5.240   1.190   9.559  0.00  0.00     0.248 C 
HETATM   61  O           0      -4.953   0.893   8.395  0.00  0.00    -0.271 OA
BRANCH  60  62
HETATM   62  C           0      -4.856   0.205  10.669  0.00  0.00     0.275 C 
BRANCH  62  63
HETATM   63  N           0      -5.015   0.788  12.064  0.00  0.00    -0.066 N 
HETATM   64  H           0      -5.943   0.609  12.462  0.00  0.00     0.275 HD
HETATM   65  H           0      -4.313   0.457  12.733  0.00  0.00     0.275 HD
HETATM   66  H           0      -4.907   1.807  12.021  0.00  0.00     0.275 HD
ENDBRANCH  62  63
BRANCH  62  67
HETATM   67  C           0      -5.582  -1.148  10.610  0.00  0.00     0.053 C 
BRANCH  67  68
HETATM   68  C           0      -5.583  -1.926  11.931  0.00  0.00     0.115 C 
BRANCH  68  69
HETATM   69  C           0      -4.752  -3.223  11.975  0.00  0.00     0.172 C 
HETATM   70  O           0      -3.496  -3.141  12.001  0.00  0.00    -0.648 OA
HETATM   71  O           0      -5.416  -4.310  11.960  0.00  0.00    -0.648 OA
ENDBRANCH  68  69
ENDBRANCH  67  68
ENDBRANCH  62  67
ENDBRANCH  60  62
ENDBRANCH  57  58
ENDBRANCH  55  57
ENDBRANCH  52  53
BRANCH  52  72
HETATM   72  C           0      -9.715   3.777   5.862  0.00  0.00     0.038 C 
BRANCH  72  73
HETATM   73  C           0     -11.232   3.777   6.130  0.00  0.00    -0.020 C 
HETATM   74  C           0     -12.059   3.821   4.837  0.00  0.00     0.009 C 
HETATM   75  C           0     -11.596   2.542   6.970  0.00  0.00     0.009 C 
ENDBRANCH  72  73
ENDBRANCH  52  72
ENDBRANCH  50  52
ENDBRANCH  41  48
ENDBRANCH   1  41
TORSDOF 28
ENDMDL
MODEL 8
REMARK VINA RESULT:      -5.8     15.518     18.938
REMARK  28 active torsions:
REMARK  status: ('A' for Active; 'I' for Inactive)
REMARK       I    between atoms: C_1  and  N_3 
REMARK    1  A    between atoms: C_1  and  C_41 
REMARK    2  A    between atoms: N_3  and  C_5 
REMARK    3  A    between atoms: C_5  and  C_6 
REMARK    4  A    between atoms: C_5  and  C_18 
REMARK       I    between atoms: C_18  and  N_19 
REMARK    5  A    between atoms: C_20  and  C_25 
REMARK       I    between atoms: C_25  and  N_26 
REMARK    6  A    between atoms: N_26  and  C_29 
REMARK    7  A    between atoms: C_29  and  C_30 
REMARK    8  A    between atoms: C_29  and  C_38 
REMARK       I    between atoms: C_30  and  N_31 
REMARK    9  A    between atoms: N_31  and  C_34 
REMARK   10  A    between atoms: C_34  and  C_35 
REMARK   11  A    between atoms: C_38  and  O_39 
REMARK   12  A    between atoms: C_6  and  C_7 
REMARK   13  A    between atoms: C_7  and  C_8 
REMARK   14  A    between atoms: C_8  and  N_9 
REMARK       I    between atoms: N_9  and  C_10 
REMARK       I    between atoms: C_10  and  N_12 
REMARK   15  A    between atoms: C_41  and  C_42 
REMARK   16  A    between atoms: C_41  and  N_48 
REMARK       I    between atoms: N_48  and  C_50 
REMARK   17  A    between atoms: C_50  and  C_52 
REMARK   18  A    between atoms: C_52  and  N_53 
REMARK   19  A    between atoms: C_52  and  C_72 
REMARK       I    between atoms: N_53  and  C_55 
REMARK   20  A    between atoms: C_55  and  C_57 
REMARK   21  A    between atoms: C_57  and  N_58 
REMARK       I    between atoms: N_58  and  C_60 
REMARK   22  A    between atoms: C_60  and  C_62 
REMARK   23  A    between atoms: C_62  and  N_63 
REMARK   24  A    between atoms: C_62  and  C_67 
REMARK   25  A    between atoms: C_67  and  C_68 
REMARK   26  A    between atoms: C_68  and  C_69 
REMARK   27  A    between atoms: C_72  and  C_73 
REMARK   28  A    between atoms: C_42  and  C_43 
REMARK       I    between atoms: C_43  and  N_44 
ROOT
HETATM    1  C           0      -1.937 -17.041   7.495  0.00  0.00     0.241 C 
HETATM    2  O           0      -1.062 -16.890   8.355  0.00  0.00    -0.271 OA
HETATM    3  N           0      -2.079 -18.205   6.818  0.00  0.00    -0.346 N 
HETATM    4  H           0      -2.786 -18.277   6.096  0.00  0.00     0.163 HD
ENDROOT
BRANCH   3   5
HETATM    5  C           0      -1.320 -19.388   7.220  0.00  0.00     0.176 C 
BRANCH   5   6
HETATM    6  C           0      -2.222 -20.443   7.881  0.00  0.00     0.036 C 
BRANCH   6   7
HETATM    7  C           0      -3.697 -20.034   7.799  0.00  0.00     0.023 C 
BRANCH   7   8
HETATM    8  C           0      -4.557 -20.956   6.935  0.00  0.00     0.138 C 
BRANCH   8   9
HETATM    9  N           0      -5.005 -20.182   5.780  0.00  0.00    -0.227 N 
HETATM   10  C           0      -4.462 -20.175   4.566  0.00  0.00     0.665 C 
HETATM   11  N           0      -3.353 -20.873   4.285  0.00  0.00    -0.235 N 
HETATM   12  N           0      -5.074 -19.446   3.614  0.00  0.00    -0.235 N 
HETATM   13  H           0      -3.036 -20.973   3.333  0.00  0.00     0.174 HD
HETATM   14  H           0      -2.938 -21.481   4.973  0.00  0.00     0.174 HD
HETATM   15  H           0      -4.586 -19.210   2.764  0.00  0.00     0.174 HD
HETATM   16  H           0      -5.831 -18.841   3.937  0.00  0.00     0.174 HD
HETATM   17  H           0      -5.814 -19.546   5.881  0.00  0.00     0.177 HD
ENDBRANCH   8   9
ENDBRANCH   7   8
ENDBRANCH   6   7
ENDBRANCH   5   6
BRANCH   5  18
HETATM   18  C           0      -0.392 -19.978   6.135  0.00  0.00     0.243 C 
HETATM   19  N           0       0.614 -20.827   6.477  0.00  0.00    -0.337 N 
HETATM   20  C           0       1.405 -21.473   5.414  0.00  0.00     0.179 C 
HETATM   21  C           0       1.339 -20.881   7.764  0.00  0.00     0.127 C 
HETATM   22  C           0       2.801 -21.718   6.051  0.00  0.00     0.037 C 
HETATM   23  C           0       2.805 -20.846   7.317  0.00  0.00     0.022 C 
HETATM   24  O           0      -0.648 -19.702   4.960  0.00  0.00    -0.271 OA
BRANCH  20  25
HETATM   25  C           0       0.818 -22.791   4.880  0.00  0.00     0.241 C 
HETATM   26  N           0      -0.267 -22.720   4.067  0.00  0.00    -0.344 N 
HETATM   27  H           0      -0.657 -21.813   3.824  0.00  0.00     0.163 HD
HETATM   28  O           0       1.341 -23.855   5.218  0.00  0.00    -0.271 OA
BRANCH  26  29
HETATM   29  C           0      -1.003 -23.908   3.663  0.00  0.00     0.200 C 
BRANCH  29  30
HETATM   30  C           0      -1.864 -23.764   2.393  0.00  0.00     0.242 C 
HETATM   31  N           0      -1.509 -24.468   1.309  0.00  0.00    -0.354 N 
HETATM   32  H           0      -0.733 -25.124   1.305  0.00  0.00     0.162 HD
HETATM   33  O           0      -2.844 -23.004   2.422  0.00  0.00    -0.271 OA
BRANCH  31  34
HETATM   34  C           0      -2.262 -24.459   0.068  0.00  0.00     0.203 C 
BRANCH  34  35
HETATM   35  C           0      -3.233 -25.673   0.015  0.00  0.00     0.307 C 
HETATM   36  O           0      -4.440 -25.433   0.289  0.00  0.00    -0.186 OA
HETATM   37  O           0      -2.704 -26.766  -0.299  0.00  0.00    -0.186 OA
ENDBRANCH  34  35
ENDBRANCH  31  34
ENDBRANCH  29  30
BRANCH  29  38
HETATM   38  C           0      -1.879 -24.438   4.818  0.00  0.00     0.199 C 
BRANCH  38  39
HETATM   39  O           0      -2.578 -23.408   5.492  0.00  0.00    -0.398 OA
HETATM   40  H           0      -2.403 -23.460   6.447  0.00  0.00     0.209 HD
ENDBRANCH  38  39
ENDBRANCH  29  38
ENDBRANCH  26  29
ENDBRANCH  20  25
ENDBRANCH   5  18
ENDBRANCH   3   5
BRANCH   1  41
HETATM   41  C           0      -2.950 -15.920   7.181  0.00  0.00     0.185 C 
BRANCH  41  42
HETATM   42  C           0      -2.477 -14.541   7.679  0.00  0.00     0.137 C 
BRANCH  42  43
HETATM   43  C           0      -3.594 -13.520   7.899  0.00  0.00     0.217 C 
HETATM   44  N           0      -3.629 -13.002   9.146  0.00  0.00    -0.370 N 
HETATM   45  H           0      -4.409 -12.402   9.376  0.00  0.00     0.159 HD
HETATM   46  H           0      -3.005 -13.321   9.898  0.00  0.00     0.159 HD
HETATM   47  O           0      -4.403 -13.236   7.013  0.00  0.00    -0.274 OA
ENDBRANCH  42  43
ENDBRANCH  41  42
BRANCH  41  48
HETATM   48  N           0      -4.254 -16.173   7.782  0.00  0.00    -0.346 N 
HETATM   49  H           0      -4.387 -15.934   8.756  0.00  0.00     0.163 HD
HETATM   50  C           0      -5.266 -16.795   7.142  0.00  0.00     0.241 C 
HETATM   51  O           0      -5.171 -17.232   5.989  0.00  0.00    -0.271 OA
BRANCH  50  52
HETATM   52  C           0      -6.594 -16.920   7.912  0.00  0.00     0.177 C 
BRANCH  52  53
HETATM   53  N           0      -7.742 -16.506   7.112  0.00  0.00    -0.346 N 
HETATM   54  H           0      -7.850 -16.886   6.180  0.00  0.00     0.163 HD
HETATM   55  C           0      -8.732 -15.726   7.625  0.00  0.00     0.236 C 
HETATM   56  O           0      -8.732 -15.320   8.784  0.00  0.00    -0.272 OA
BRANCH  55  57
HETATM   57  C           0      -9.894 -15.385   6.682  0.00  0.00     0.225 C 
BRANCH  57  58
HETATM   58  N           0      -9.508 -15.249   5.278  0.00  0.00    -0.351 N 
HETATM   59  H           0      -9.221 -16.088   4.795  0.00  0.00     0.163 HD
HETATM   60  C           0      -9.816 -14.113   4.610  0.00  0.00     0.248 C 
HETATM   61  O           0     -10.337 -13.149   5.183  0.00  0.00    -0.271 OA
BRANCH  60  62
HETATM   62  C           0      -9.497 -13.975   3.117  0.00  0.00     0.275 C 
BRANCH  62  63
HETATM   63  N           0      -8.595 -15.082   2.597  0.00  0.00    -0.066 N 
HETATM   64  H           0      -7.721 -15.161   3.130  0.00  0.00     0.275 HD
HETATM   65  H           0      -9.040 -16.005   2.580  0.00  0.00     0.275 HD
HETATM   66  H           0      -8.329 -14.878   1.628  0.00  0.00     0.275 HD
ENDBRANCH  62  63
BRANCH  62  67
HETATM   67  C           0     -10.727 -13.865   2.202  0.00  0.00     0.053 C 
BRANCH  67  68
HETATM   68  C           0     -11.148 -15.184   1.544  0.00  0.00     0.115 C 
BRANCH  68  69
HETATM   69  C           0     -11.876 -16.206   2.440  0.00  0.00     0.172 C 
HETATM   70  O           0     -11.191 -16.976   3.164  0.00  0.00    -0.648 OA
HETATM   71  O           0     -13.147 -16.208   2.362  0.00  0.00    -0.648 OA
ENDBRANCH  68  69
ENDBRANCH  67  68
ENDBRANCH  62  67
ENDBRANCH  60  62
ENDBRANCH  57  58
ENDBRANCH  55  57
ENDBRANCH  52  53
BRANCH  52  72
HETATM   72  C           0      -6.827 -18.362   8.419  0.00  0.00     0.038 C 
BRANCH  72  73
HETATM   73  C           0      -7.010 -18.548   9.937  0.00  0.00    -0.020 C 
HETATM   74  C           0      -6.338 -19.826  10.460  0.00  0.00     0.009 C 
HETATM   75  C           0      -6.468 -17.307  10.666  0.00  0.00     0.009 C 
ENDBRANCH  72  73
ENDBRANCH  52  72
ENDBRANCH  50  52
ENDBRANCH  41  48
ENDBRANCH   1  41
TORSDOF 28
ENDMDL
MODEL 9
REMARK VINA RESULT:      -5.8     17.735     22.317
REMARK  28 active torsions:
REMARK  status: ('A' for Active; 'I' for Inactive)
REMARK       I    between atoms: C_1  and  N_3 
REMARK    1  A    between atoms: C_1  and  C_41 
REMARK    2  A    between atoms: N_3  and  C_5 
REMARK    3  A    between atoms: C_5  and  C_6 
REMARK    4  A    between atoms: C_5  and  C_18 
REMARK       I    between atoms: C_18  and  N_19 
REMARK    5  A    between atoms: C_20  and  C_25 
REMARK       I    between atoms: C_25  and  N_26 
REMARK    6  A    between atoms: N_26  and  C_29 
REMARK    7  A    between atoms: C_29  and  C_30 
REMARK    8  A    between atoms: C_29  and  C_38 
REMARK       I    between atoms: C_30  and  N_31 
REMARK    9  A    between atoms: N_31  and  C_34 
REMARK   10  A    between atoms: C_34  and  C_35 
REMARK   11  A    between atoms: C_38  and  O_39 
REMARK   12  A    between atoms: C_6  and  C_7 
REMARK   13  A    between atoms: C_7  and  C_8 
REMARK   14  A    between atoms: C_8  and  N_9 
REMARK       I    between atoms: N_9  and  C_10 
REMARK       I    between atoms: C_10  and  N_12 
REMARK   15  A    between atoms: C_41  and  C_42 
REMARK   16  A    between atoms: C_41  and  N_48 
REMARK       I    between atoms: N_48  and  C_50 
REMARK   17  A    between atoms: C_50  and  C_52 
REMARK   18  A    between atoms: C_52  and  N_53 
REMARK   19  A    between atoms: C_52  and  C_72 
REMARK       I    between atoms: N_53  and  C_55 
REMARK   20  A    between atoms: C_55  and  C_57 
REMARK   21  A    between atoms: C_57  and  N_58 
REMARK       I    between atoms: N_58  and  C_60 
REMARK   22  A    between atoms: C_60  and  C_62 
REMARK   23  A    between atoms: C_62  and  N_63 
REMARK   24  A    between atoms: C_62  and  C_67 
REMARK   25  A    between atoms: C_67  and  C_68 
REMARK   26  A    between atoms: C_68  and  C_69 
REMARK   27  A    between atoms: C_72  and  C_73 
REMARK   28  A    between atoms: C_42  and  C_43 
REMARK       I    between atoms: C_43  and  N_44 
ROOT
HETATM    1  C           0      -4.744 -19.928   4.865  0.00  0.00     0.241 C 
HETATM    2  O           0      -4.140 -19.558   3.852  0.00  0.00    -0.271 OA
HETATM    3  N           0      -4.894 -21.240   5.166  0.00  0.00    -0.346 N 
HETATM    4  H           0      -5.426 -21.504   5.987  0.00  0.00     0.163 HD
ENDROOT
BRANCH   3   5
HETATM    5  C           0      -4.180 -22.259   4.399  0.00  0.00     0.176 C 
BRANCH   5   6
HETATM    6  C           0      -3.004 -22.848   5.195  0.00  0.00     0.036 C 
BRANCH   6   7
HETATM    7  C           0      -1.793 -21.908   5.162  0.00  0.00     0.023 C 
BRANCH   7   8
HETATM    8  C           0      -1.184 -21.720   3.772  0.00  0.00     0.138 C 
BRANCH   8   9
HETATM    9  N           0      -0.734 -23.031   3.311  0.00  0.00    -0.227 N 
HETATM   10  C           0       0.453 -23.588   3.530  0.00  0.00     0.665 C 
HETATM   11  N           0       1.427 -22.940   4.185  0.00  0.00    -0.235 N 
HETATM   12  N           0       0.646 -24.842   3.080  0.00  0.00    -0.235 N 
HETATM   13  H           0       2.266 -23.424   4.469  0.00  0.00     0.174 HD
HETATM   14  H           0       1.260 -22.033   4.591  0.00  0.00     0.174 HD
HETATM   15  H           0       1.580 -25.215   3.002  0.00  0.00     0.174 HD
HETATM   16  H           0      -0.091 -25.216   2.479  0.00  0.00     0.174 HD
HETATM   17  H           0      -1.367 -23.608   2.732  0.00  0.00     0.177 HD
ENDBRANCH   8   9
ENDBRANCH   7   8
ENDBRANCH   6   7
ENDBRANCH   5   6
BRANCH   5  18
HETATM   18  C           0      -5.069 -23.339   3.745  0.00  0.00     0.243 C 
HETATM   19  N           0      -5.694 -23.095   2.561  0.00  0.00    -0.337 N 
HETATM   20  C           0      -6.434 -24.183   1.899  0.00  0.00     0.179 C 
HETATM   21  C           0      -6.121 -21.782   2.031  0.00  0.00     0.127 C 
HETATM   22  C           0      -7.551 -23.467   1.089  0.00  0.00     0.037 C 
HETATM   23  C           0      -7.585 -22.040   1.658  0.00  0.00     0.022 C 
HETATM   24  O           0      -5.128 -24.438   4.304  0.00  0.00    -0.271 OA
BRANCH  20  25
HETATM   25  C           0      -5.587 -25.074   0.975  0.00  0.00     0.241 C 
HETATM   26  N           0      -4.432 -25.587   1.471  0.00  0.00    -0.344 N 
HETATM   27  H           0      -4.161 -25.383   2.430  0.00  0.00     0.163 HD
HETATM   28  O           0      -5.976 -25.276  -0.178  0.00  0.00    -0.271 OA
BRANCH  26  29
HETATM   29  C           0      -3.475 -26.284   0.625  0.00  0.00     0.200 C 
BRANCH  29  30
HETATM   30  C           0      -2.727 -27.459   1.285  0.00  0.00     0.242 C 
HETATM   31  N           0      -1.640 -27.940   0.666  0.00  0.00    -0.354 N 
HETATM   32  H           0      -1.262 -27.532  -0.186  0.00  0.00     0.162 HD
HETATM   33  O           0      -3.161 -27.915   2.354  0.00  0.00    -0.271 OA
BRANCH  31  34
HETATM   34  C           0      -0.820 -29.009   1.204  0.00  0.00     0.203 C 
BRANCH  34  35
HETATM   35  C           0       0.610 -28.486   1.526  0.00  0.00     0.307 C 
HETATM   36  O           0       0.779 -27.240   1.445  0.00  0.00    -0.186 OA
HETATM   37  O           0       1.444 -29.371   1.836  0.00  0.00    -0.186 OA
ENDBRANCH  34  35
ENDBRANCH  31  34
ENDBRANCH  29  30
BRANCH  29  38
HETATM   38  C           0      -2.450 -25.300   0.021  0.00  0.00     0.199 C 
BRANCH  38  39
HETATM   39  O           0      -1.345 -25.066   0.874  0.00  0.00    -0.398 OA
HETATM   40  H           0      -1.164 -25.860   1.405  0.00  0.00     0.209 HD
ENDBRANCH  38  39
ENDBRANCH  29  38
ENDBRANCH  26  29
ENDBRANCH  20  25
ENDBRANCH   5  18
ENDBRANCH   3   5
BRANCH   1  41
HETATM   41  C           0      -5.318 -18.908   5.871  0.00  0.00     0.185 C 
BRANCH  41  42
HETATM   42  C           0      -6.268 -17.895   5.205  0.00  0.00     0.137 C 
BRANCH  42  43
HETATM   43  C           0      -6.525 -16.626   6.017  0.00  0.00     0.217 C 
HETATM   44  N           0      -6.598 -15.500   5.274  0.00  0.00    -0.370 N 
HETATM   45  H           0      -6.662 -14.622   5.769  0.00  0.00     0.159 HD
HETATM   46  H           0      -6.425 -15.492   4.261  0.00  0.00     0.159 HD
HETATM   47  O           0      -6.617 -16.645   7.247  0.00  0.00    -0.274 OA
ENDBRANCH  42  43
ENDBRANCH  41  42
BRANCH  41  48
HETATM   48  N           0      -4.271 -18.146   6.539  0.00  0.00    -0.346 N 
HETATM   49  H           0      -4.119 -17.187   6.252  0.00  0.00     0.163 HD
HETATM   50  C           0      -3.428 -18.671   7.452  0.00  0.00     0.241 C 
HETATM   51  O           0      -3.451 -19.861   7.790  0.00  0.00    -0.271 OA
BRANCH  50  52
HETATM   52  C           0      -2.424 -17.700   8.101  0.00  0.00     0.177 C 
BRANCH  52  53
HETATM   53  N           0      -1.040 -18.040   7.789  0.00  0.00    -0.346 N 
HETATM   54  H           0      -0.383 -18.161   8.550  0.00  0.00     0.163 HD
HETATM   55  C           0      -0.637 -18.322   6.521  0.00  0.00     0.236 C 
HETATM   56  O           0      -1.400 -18.311   5.558  0.00  0.00    -0.272 OA
BRANCH  55  57
HETATM   57  C           0       0.842 -18.688   6.336  0.00  0.00     0.225 C 
BRANCH  57  58
HETATM   58  N           0       1.151 -20.090   6.611  0.00  0.00    -0.351 N 
HETATM   59  H           0       0.552 -20.786   6.191  0.00  0.00     0.163 HD
HETATM   60  C           0       2.351 -20.414   7.148  0.00  0.00     0.248 C 
HETATM   61  O           0       3.158 -19.545   7.497  0.00  0.00    -0.271 OA
BRANCH  60  62
HETATM   62  C           0       2.734 -21.881   7.372  0.00  0.00     0.275 C 
BRANCH  62  63
HETATM   63  N           0       4.174 -22.059   7.827  0.00  0.00    -0.066 N 
HETATM   64  H           0       4.822 -21.433   7.335  0.00  0.00     0.275 HD
HETATM   65  H           0       4.308 -21.928   8.834  0.00  0.00     0.275 HD
HETATM   66  H           0       4.480 -23.016   7.623  0.00  0.00     0.275 HD
ENDBRANCH  62  63
BRANCH  62  67
HETATM   67  C           0       1.811 -22.650   8.330  0.00  0.00     0.053 C 
BRANCH  67  68
HETATM   68  C           0       1.580 -21.957   9.679  0.00  0.00     0.115 C 
BRANCH  68  69
HETATM   69  C           0       0.140 -21.506   9.991  0.00  0.00     0.172 C 
HETATM   70  O           0      -0.439 -20.724   9.191  0.00  0.00    -0.648 OA
HETATM   71  O           0      -0.362 -21.954  11.072  0.00  0.00    -0.648 OA
ENDBRANCH  68  69
ENDBRANCH  67  68
ENDBRANCH  62  67
ENDBRANCH  60  62
ENDBRANCH  57  58
ENDBRANCH  55  57
ENDBRANCH  52  53
BRANCH  52  72
HETATM   72  C           0      -2.691 -16.236   7.680  0.00  0.00     0.038 C 
BRANCH  72  73
HETATM   73  C           0      -2.353 -15.141   8.710  0.00  0.00    -0.020 C 
HETATM   74  C           0      -2.014 -13.797   8.049  0.00  0.00     0.009 C 
HETATM   75  C           0      -3.529 -14.988   9.688  0.00  0.00     0.009 C 
ENDBRANCH  72  73
ENDBRANCH  52  72
ENDBRANCH  50  52
ENDBRANCH  41  48
ENDBRANCH   1  41
TORSDOF 28
ENDMDL
