MODEL 1
REMARK VINA RESULT:      -5.1      0.000      0.000
REMARK  28 active torsions:
REMARK  status: ('A' for Active; 'I' for Inactive)
REMARK       I    between atoms: C_1  and  N_3 
REMARK    1  A    between atoms: C_1  and  C_41 
REMARK    2  A    between atoms: N_3  and  C_5 
REMARK    3  A    between atoms: C_5  and  C_6 
REMARK    4  A    between atoms: C_5  and  C_18 
REMARK       I    between atoms: C_18  and  N_19 
REMARK    5  A    between atoms: C_20  and  C_25 
REMARK       I    between atoms: C_25  and  N_26 
REMARK    6  A    between atoms: N_26  and  C_29 
REMARK    7  A    between atoms: C_29  and  C_30 
REMARK    8  A    between atoms: C_29  and  C_38 
REMARK       I    between atoms: C_30  and  N_31 
REMARK    9  A    between atoms: N_31  and  C_34 
REMARK   10  A    between atoms: C_34  and  C_35 
REMARK   11  A    between atoms: C_38  and  O_39 
REMARK   12  A    between atoms: C_6  and  C_7 
REMARK   13  A    between atoms: C_7  and  C_8 
REMARK   14  A    between atoms: C_8  and  N_9 
REMARK       I    between atoms: N_9  and  C_10 
REMARK       I    between atoms: C_10  and  N_12 
REMARK   15  A    between atoms: C_41  and  C_42 
REMARK   16  A    between atoms: C_41  and  N_48 
REMARK       I    between atoms: N_48  and  C_50 
REMARK   17  A    between atoms: C_50  and  C_52 
REMARK   18  A    between atoms: C_52  and  N_53 
REMARK   19  A    between atoms: C_52  and  C_72 
REMARK       I    between atoms: N_53  and  C_55 
REMARK   20  A    between atoms: C_55  and  C_57 
REMARK   21  A    between atoms: C_57  and  N_58 
REMARK       I    between atoms: N_58  and  C_60 
REMARK   22  A    between atoms: C_60  and  C_62 
REMARK   23  A    between atoms: C_62  and  N_63 
REMARK   24  A    between atoms: C_62  and  C_67 
REMARK   25  A    between atoms: C_67  and  C_68 
REMARK   26  A    between atoms: C_68  and  C_69 
REMARK   27  A    between atoms: C_72  and  C_73 
REMARK   28  A    between atoms: C_42  and  C_43 
REMARK       I    between atoms: C_43  and  N_44 
ROOT
HETATM    1  C           0       7.339 -17.296   3.035  0.00  0.00     0.241 C 
HETATM    2  O           0       6.216 -17.399   2.529  0.00  0.00    -0.271 OA
HETATM    3  N           0       7.544 -17.481   4.360  0.00  0.00    -0.346 N 
HETATM    4  H           0       8.473 -17.352   4.743  0.00  0.00     0.163 HD
ENDROOT
BRANCH   3   5
HETATM    5  C           0       6.471 -17.999   5.206  0.00  0.00     0.176 C 
BRANCH   5   6
HETATM    6  C           0       6.799 -19.402   5.744  0.00  0.00     0.036 C 
BRANCH   6   7
HETATM    7  C           0       8.311 -19.582   5.921  0.00  0.00     0.023 C 
BRANCH   7   8
HETATM    8  C           0       8.782 -19.531   7.374  0.00  0.00     0.138 C 
BRANCH   8   9
HETATM    9  N           0       9.404 -18.227   7.587  0.00  0.00    -0.227 N 
HETATM   10  C           0       9.556 -17.596   8.748  0.00  0.00     0.665 C 
HETATM   11  N           0       9.073 -18.100   9.893  0.00  0.00    -0.235 N 
HETATM   12  N           0      10.226 -16.429   8.741  0.00  0.00    -0.235 N 
HETATM   13  H           0       9.318 -17.686  10.780  0.00  0.00     0.174 HD
HETATM   14  H           0       8.640 -19.010   9.914  0.00  0.00     0.174 HD
HETATM   15  H           0      10.161 -15.801   9.527  0.00  0.00     0.174 HD
HETATM   16  H           0      10.444 -16.049   7.817  0.00  0.00     0.174 HD
HETATM   17  H           0       9.758 -17.696   6.773  0.00  0.00     0.177 HD
ENDBRANCH   8   9
ENDBRANCH   7   8
ENDBRANCH   6   7
ENDBRANCH   5   6
BRANCH   5  18
HETATM   18  C           0       5.967 -17.034   6.302  0.00  0.00     0.243 C 
HETATM   19  N           0       4.757 -16.424   6.181  0.00  0.00    -0.337 N 
HETATM   20  C           0       4.247 -15.607   7.295  0.00  0.00     0.179 C 
HETATM   21  C           0       4.047 -16.089   4.928  0.00  0.00     0.127 C 
HETATM   22  C           0       3.338 -14.541   6.623  0.00  0.00     0.037 C 
HETATM   23  C           0       3.704 -14.609   5.132  0.00  0.00     0.022 C 
HETATM   24  O           0       6.672 -16.901   7.306  0.00  0.00    -0.271 OA
BRANCH  20  25
HETATM   25  C           0       3.460 -16.387   8.364  0.00  0.00     0.241 C 
HETATM   26  N           0       2.113 -16.228   8.401  0.00  0.00    -0.344 N 
HETATM   27  H           0       1.657 -15.617   7.729  0.00  0.00     0.163 HD
HETATM   28  O           0       4.079 -17.109   9.149  0.00  0.00    -0.271 OA
BRANCH  26  29
HETATM   29  C           0       1.305 -16.772   9.484  0.00  0.00     0.200 C 
BRANCH  29  30
HETATM   30  C           0       0.807 -18.218   9.288  0.00  0.00     0.242 C 
HETATM   31  N           0       0.221 -18.529   8.124  0.00  0.00    -0.354 N 
HETATM   32  H           0       0.138 -17.871   7.353  0.00  0.00     0.162 HD
HETATM   33  O           0       0.963 -19.031  10.213  0.00  0.00    -0.271 OA
BRANCH  31  34
HETATM   34  C           0      -0.247 -19.863   7.795  0.00  0.00     0.203 C 
BRANCH  34  35
HETATM   35  C           0      -1.652 -19.797   7.131  0.00  0.00     0.307 C 
HETATM   36  O           0      -2.328 -18.757   7.360  0.00  0.00    -0.186 OA
HETATM   37  O           0      -1.959 -20.793   6.434  0.00  0.00    -0.186 OA
ENDBRANCH  34  35
ENDBRANCH  31  34
ENDBRANCH  29  30
BRANCH  29  38
HETATM   38  C           0       0.104 -15.854   9.794  0.00  0.00     0.199 C 
BRANCH  38  39
HETATM   39  O           0      -1.104 -16.319   9.220  0.00  0.00    -0.398 OA
HETATM   40  H           0      -1.847 -15.773   9.528  0.00  0.00     0.209 HD
ENDBRANCH  38  39
ENDBRANCH  29  38
ENDBRANCH  26  29
ENDBRANCH  20  25
ENDBRANCH   5  18
ENDBRANCH   3   5
BRANCH   1  41
HETATM   41  C           0       8.581 -16.995   2.169  0.00  0.00     0.185 C 
BRANCH  41  42
HETATM   42  C           0       9.112 -18.247   1.445  0.00  0.00     0.137 C 
BRANCH  42  43
HETATM   43  C           0      10.169 -19.036   2.217  0.00  0.00     0.217 C 
HETATM   44  N           0       9.683 -20.105   2.883  0.00  0.00    -0.370 N 
HETATM   45  H           0      10.319 -20.600   3.492  0.00  0.00     0.159 HD
HETATM   46  H           0       8.680 -20.325   2.923  0.00  0.00     0.159 HD
HETATM   47  O           0      11.352 -18.686   2.247  0.00  0.00    -0.274 OA
ENDBRANCH  42  43
ENDBRANCH  41  42
BRANCH  41  48
HETATM   48  N           0       9.681 -16.451   2.956  0.00  0.00    -0.346 N 
HETATM   49  H           0       9.777 -16.753   3.917  0.00  0.00     0.163 HD
HETATM   50  C           0      10.522 -15.496   2.507  0.00  0.00     0.241 C 
HETATM   51  O           0      10.421 -14.974   1.390  0.00  0.00    -0.271 OA
BRANCH  50  52
HETATM   52  C           0      11.665 -15.086   3.454  0.00  0.00     0.177 C 
BRANCH  52  53
HETATM   53  N           0      12.357 -16.239   4.023  0.00  0.00    -0.346 N 
HETATM   54  H           0      13.233 -16.534   3.612  0.00  0.00     0.163 HD
HETATM   55  C           0      11.925 -16.847   5.160  0.00  0.00     0.236 C 
HETATM   56  O           0      10.935 -16.474   5.784  0.00  0.00    -0.272 OA
BRANCH  55  57
HETATM   57  C           0      12.759 -18.033   5.663  0.00  0.00     0.225 C 
BRANCH  57  58
HETATM   58  N           0      14.005 -17.652   6.327  0.00  0.00    -0.351 N 
HETATM   59  H           0      14.791 -17.423   5.737  0.00  0.00     0.163 HD
HETATM   60  C           0      13.988 -17.338   7.644  0.00  0.00     0.248 C 
HETATM   61  O           0      12.961 -17.454   8.322  0.00  0.00    -0.271 OA
BRANCH  60  62
HETATM   62  C           0      15.263 -16.857   8.347  0.00  0.00     0.275 C 
BRANCH  62  63
HETATM   63  N           0      16.515 -17.052   7.508  0.00  0.00    -0.066 N 
HETATM   64  H           0      17.376 -16.898   8.044  0.00  0.00     0.275 HD
HETATM   65  H           0      16.577 -17.975   7.067  0.00  0.00     0.275 HD
HETATM   66  H           0      16.521 -16.371   6.742  0.00  0.00     0.275 HD
ENDBRANCH  62  63
BRANCH  62  67
HETATM   67  C           0      15.216 -15.402   8.841  0.00  0.00     0.053 C 
BRANCH  67  68
HETATM   68  C           0      15.120 -14.357   7.723  0.00  0.00     0.115 C 
BRANCH  68  69
HETATM   69  C           0      13.880 -13.441   7.733  0.00  0.00     0.172 C 
HETATM   70  O           0      12.755 -13.938   7.464  0.00  0.00    -0.648 OA
HETATM   71  O           0      14.096 -12.215   8.001  0.00  0.00    -0.648 OA
ENDBRANCH  68  69
ENDBRANCH  67  68
ENDBRANCH  62  67
ENDBRANCH  60  62
ENDBRANCH  57  58
ENDBRANCH  55  57
ENDBRANCH  52  53
BRANCH  52  72
HETATM   72  C           0      12.697 -14.179   2.745  0.00  0.00     0.038 C 
BRANCH  72  73
HETATM   73  C           0      13.973 -13.824   3.532  0.00  0.00    -0.020 C 
HETATM   74  C           0      15.215 -13.739   2.633  0.00  0.00     0.009 C 
HETATM   75  C           0      13.750 -12.502   4.284  0.00  0.00     0.009 C 
ENDBRANCH  72  73
ENDBRANCH  52  72
ENDBRANCH  50  52
ENDBRANCH  41  48
ENDBRANCH   1  41
TORSDOF 28
ENDMDL
MODEL 2
REMARK VINA RESULT:      -5.1      2.550      3.852
REMARK  28 active torsions:
REMARK  status: ('A' for Active; 'I' for Inactive)
REMARK       I    between atoms: C_1  and  N_3 
REMARK    1  A    between atoms: C_1  and  C_41 
REMARK    2  A    between atoms: N_3  and  C_5 
REMARK    3  A    between atoms: C_5  and  C_6 
REMARK    4  A    between atoms: C_5  and  C_18 
REMARK       I    between atoms: C_18  and  N_19 
REMARK    5  A    between atoms: C_20  and  C_25 
REMARK       I    between atoms: C_25  and  N_26 
REMARK    6  A    between atoms: N_26  and  C_29 
REMARK    7  A    between atoms: C_29  and  C_30 
REMARK    8  A    between atoms: C_29  and  C_38 
REMARK       I    between atoms: C_30  and  N_31 
REMARK    9  A    between atoms: N_31  and  C_34 
REMARK   10  A    between atoms: C_34  and  C_35 
REMARK   11  A    between atoms: C_38  and  O_39 
REMARK   12  A    between atoms: C_6  and  C_7 
REMARK   13  A    between atoms: C_7  and  C_8 
REMARK   14  A    between atoms: C_8  and  N_9 
REMARK       I    between atoms: N_9  and  C_10 
REMARK       I    between atoms: C_10  and  N_12 
REMARK   15  A    between atoms: C_41  and  C_42 
REMARK   16  A    between atoms: C_41  and  N_48 
REMARK       I    between atoms: N_48  and  C_50 
REMARK   17  A    between atoms: C_50  and  C_52 
REMARK   18  A    between atoms: C_52  and  N_53 
REMARK   19  A    between atoms: C_52  and  C_72 
REMARK       I    between atoms: N_53  and  C_55 
REMARK   20  A    between atoms: C_55  and  C_57 
REMARK   21  A    between atoms: C_57  and  N_58 
REMARK       I    between atoms: N_58  and  C_60 
REMARK   22  A    between atoms: C_60  and  C_62 
REMARK   23  A    between atoms: C_62  and  N_63 
REMARK   24  A    between atoms: C_62  and  C_67 
REMARK   25  A    between atoms: C_67  and  C_68 
REMARK   26  A    between atoms: C_68  and  C_69 
REMARK   27  A    between atoms: C_72  and  C_73 
REMARK   28  A    between atoms: C_42  and  C_43 
REMARK       I    between atoms: C_43  and  N_44 
ROOT
HETATM    1  C           0       7.658 -17.363   3.446  0.00  0.00     0.241 C 
HETATM    2  O           0       6.604 -17.176   2.828  0.00  0.00    -0.271 OA
HETATM    3  N           0       7.664 -17.750   4.744  0.00  0.00    -0.346 N 
HETATM    4  H           0       8.548 -17.858   5.226  0.00  0.00     0.163 HD
ENDROOT
BRANCH   3   5
HETATM    5  C           0       6.420 -18.146   5.401  0.00  0.00     0.176 C 
BRANCH   5   6
HETATM    6  C           0       6.482 -19.597   5.906  0.00  0.00     0.036 C 
BRANCH   6   7
HETATM    7  C           0       7.918 -19.991   6.268  0.00  0.00     0.023 C 
BRANCH   7   8
HETATM    8  C           0       8.083 -20.511   7.696  0.00  0.00     0.138 C 
BRANCH   8   9
HETATM    9  N           0       7.583 -19.477   8.599  0.00  0.00    -0.227 N 
HETATM   10  C           0       6.622 -19.611   9.509  0.00  0.00     0.665 C 
HETATM   11  N           0       5.942 -20.757   9.653  0.00  0.00    -0.235 N 
HETATM   12  N           0       6.357 -18.552  10.296  0.00  0.00    -0.235 N 
HETATM   13  H           0       5.320 -20.890  10.436  0.00  0.00     0.174 HD
HETATM   14  H           0       6.190 -21.575   9.120  0.00  0.00     0.174 HD
HETATM   15  H           0       5.498 -18.513  10.822  0.00  0.00     0.174 HD
HETATM   16  H           0       6.822 -17.679  10.037  0.00  0.00     0.174 HD
HETATM   17  H           0       7.976 -18.522   8.542  0.00  0.00     0.177 HD
ENDBRANCH   8   9
ENDBRANCH   7   8
ENDBRANCH   6   7
ENDBRANCH   5   6
BRANCH   5  18
HETATM   18  C           0       5.888 -17.158   6.462  0.00  0.00     0.243 C 
HETATM   19  N           0       4.702 -16.518   6.276  0.00  0.00    -0.337 N 
HETATM   20  C           0       4.159 -15.677   7.357  0.00  0.00     0.179 C 
HETATM   21  C           0       4.064 -16.176   4.987  0.00  0.00     0.127 C 
HETATM   22  C           0       3.313 -14.594   6.631  0.00  0.00     0.037 C 
HETATM   23  C           0       3.751 -14.686   5.161  0.00  0.00     0.022 C 
HETATM   24  O           0       6.546 -17.033   7.499  0.00  0.00    -0.271 OA
BRANCH  20  25
HETATM   25  C           0       3.301 -16.426   8.391  0.00  0.00     0.241 C 
HETATM   26  N           0       1.951 -16.308   8.300  0.00  0.00    -0.344 N 
HETATM   27  H           0       1.542 -15.747   7.558  0.00  0.00     0.163 HD
HETATM   28  O           0       3.865 -17.087   9.266  0.00  0.00    -0.271 OA
BRANCH  26  29
HETATM   29  C           0       1.064 -16.822   9.334  0.00  0.00     0.200 C 
BRANCH  29  30
HETATM   30  C           0       0.619 -18.288   9.168  0.00  0.00     0.242 C 
HETATM   31  N           0      -0.144 -18.598   8.111  0.00  0.00    -0.354 N 
HETATM   32  H           0      -0.395 -17.922   7.393  0.00  0.00     0.162 HD
HETATM   33  O           0       0.976 -19.118  10.018  0.00  0.00    -0.271 OA
BRANCH  31  34
HETATM   34  C           0      -0.589 -19.946   7.813  0.00  0.00     0.203 C 
BRANCH  34  35
HETATM   35  C           0      -1.763 -19.917   6.793  0.00  0.00     0.307 C 
HETATM   36  O           0      -2.139 -21.033   6.343  0.00  0.00    -0.186 OA
HETATM   37  O           0      -2.212 -18.775   6.529  0.00  0.00    -0.186 OA
ENDBRANCH  34  35
ENDBRANCH  31  34
ENDBRANCH  29  30
BRANCH  29  38
HETATM   38  C           0      -0.181 -15.923   9.493  0.00  0.00     0.199 C 
BRANCH  38  39
HETATM   39  O           0      -0.342 -15.015   8.418  0.00  0.00    -0.398 OA
HETATM   40  H           0       0.503 -14.574   8.230  0.00  0.00     0.209 HD
ENDBRANCH  38  39
ENDBRANCH  29  38
ENDBRANCH  26  29
ENDBRANCH  20  25
ENDBRANCH   5  18
ENDBRANCH   3   5
BRANCH   1  41
HETATM   41  C           0       9.028 -17.210   2.754  0.00  0.00     0.185 C 
BRANCH  41  42
HETATM   42  C           0       9.262 -18.275   1.666  0.00  0.00     0.137 C 
BRANCH  42  43
HETATM   43  C           0      10.326 -19.318   2.007  0.00  0.00     0.217 C 
HETATM   44  N           0       9.836 -20.441   2.576  0.00  0.00    -0.370 N 
HETATM   45  H           0      10.505 -21.118   2.916  0.00  0.00     0.159 HD
HETATM   46  H           0       8.845 -20.551   2.823  0.00  0.00     0.159 HD
HETATM   47  O           0      11.526 -19.116   1.806  0.00  0.00    -0.274 OA
ENDBRANCH  42  43
ENDBRANCH  41  42
BRANCH  41  48
HETATM   48  N           0      10.135 -17.305   3.698  0.00  0.00    -0.346 N 
HETATM   49  H           0      10.198 -18.130   4.280  0.00  0.00     0.163 HD
HETATM   50  C           0      11.026 -16.314   3.910  0.00  0.00     0.241 C 
HETATM   51  O           0      10.972 -15.219   3.337  0.00  0.00    -0.271 OA
BRANCH  50  52
HETATM   52  C           0      12.167 -16.616   4.900  0.00  0.00     0.177 C 
BRANCH  52  53
HETATM   53  N           0      12.721 -15.404   5.496  0.00  0.00    -0.346 N 
HETATM   54  H           0      12.110 -14.800   6.031  0.00  0.00     0.163 HD
HETATM   55  C           0      14.053 -15.129   5.459  0.00  0.00     0.236 C 
HETATM   56  O           0      14.876 -15.871   4.929  0.00  0.00    -0.272 OA
BRANCH  55  57
HETATM   57  C           0      14.504 -13.832   6.146  0.00  0.00     0.225 C 
BRANCH  57  58
HETATM   58  N           0      15.128 -12.863   5.248  0.00  0.00    -0.351 N 
HETATM   59  H           0      15.564 -13.223   4.410  0.00  0.00     0.163 HD
HETATM   60  C           0      14.858 -11.545   5.400  0.00  0.00     0.248 C 
HETATM   61  O           0      14.167 -11.132   6.337  0.00  0.00    -0.271 OA
BRANCH  60  62
HETATM   62  C           0      15.434 -10.514   4.422  0.00  0.00     0.275 C 
BRANCH  62  63
HETATM   63  N           0      14.396  -9.524   3.920  0.00  0.00    -0.066 N 
HETATM   64  H           0      14.499  -8.596   4.345  0.00  0.00     0.275 HD
HETATM   65  H           0      14.392  -9.409   2.902  0.00  0.00     0.275 HD
HETATM   66  H           0      13.459  -9.857   4.171  0.00  0.00     0.275 HD
ENDBRANCH  62  63
BRANCH  62  67
HETATM   67  C           0      16.650  -9.735   4.948  0.00  0.00     0.053 C 
BRANCH  67  68
HETATM   68  C           0      17.719  -9.439   3.890  0.00  0.00     0.115 C 
BRANCH  68  69
HETATM   69  C           0      17.539  -8.151   3.062  0.00  0.00     0.172 C 
HETATM   70  O           0      16.564  -7.396   3.317  0.00  0.00    -0.648 OA
HETATM   71  O           0      18.400  -7.954   2.145  0.00  0.00    -0.648 OA
ENDBRANCH  68  69
ENDBRANCH  67  68
ENDBRANCH  62  67
ENDBRANCH  60  62
ENDBRANCH  57  58
ENDBRANCH  55  57
ENDBRANCH  52  53
BRANCH  52  72
HETATM   72  C           0      11.709 -17.568   6.028  0.00  0.00     0.038 C 
BRANCH  72  73
HETATM   73  C           0      12.519 -18.864   6.221  0.00  0.00    -0.020 C 
HETATM   74  C           0      13.120 -18.978   7.630  0.00  0.00     0.009 C 
HETATM   75  C           0      11.622 -20.071   5.909  0.00  0.00     0.009 C 
ENDBRANCH  72  73
ENDBRANCH  52  72
ENDBRANCH  50  52
ENDBRANCH  41  48
ENDBRANCH   1  41
TORSDOF 28
ENDMDL
MODEL 3
REMARK VINA RESULT:      -4.6      2.632      4.044
REMARK  28 active torsions:
REMARK  status: ('A' for Active; 'I' for Inactive)
REMARK       I    between atoms: C_1  and  N_3 
REMARK    1  A    between atoms: C_1  and  C_41 
REMARK    2  A    between atoms: N_3  and  C_5 
REMARK    3  A    between atoms: C_5  and  C_6 
REMARK    4  A    between atoms: C_5  and  C_18 
REMARK       I    between atoms: C_18  and  N_19 
REMARK    5  A    between atoms: C_20  and  C_25 
REMARK       I    between atoms: C_25  and  N_26 
REMARK    6  A    between atoms: N_26  and  C_29 
REMARK    7  A    between atoms: C_29  and  C_30 
REMARK    8  A    between atoms: C_29  and  C_38 
REMARK       I    between atoms: C_30  and  N_31 
REMARK    9  A    between atoms: N_31  and  C_34 
REMARK   10  A    between atoms: C_34  and  C_35 
REMARK   11  A    between atoms: C_38  and  O_39 
REMARK   12  A    between atoms: C_6  and  C_7 
REMARK   13  A    between atoms: C_7  and  C_8 
REMARK   14  A    between atoms: C_8  and  N_9 
REMARK       I    between atoms: N_9  and  C_10 
REMARK       I    between atoms: C_10  and  N_12 
REMARK   15  A    between atoms: C_41  and  C_42 
REMARK   16  A    between atoms: C_41  and  N_48 
REMARK       I    between atoms: N_48  and  C_50 
REMARK   17  A    between atoms: C_50  and  C_52 
REMARK   18  A    between atoms: C_52  and  N_53 
REMARK   19  A    between atoms: C_52  and  C_72 
REMARK       I    between atoms: N_53  and  C_55 
REMARK   20  A    between atoms: C_55  and  C_57 
REMARK   21  A    between atoms: C_57  and  N_58 
REMARK       I    between atoms: N_58  and  C_60 
REMARK   22  A    between atoms: C_60  and  C_62 
REMARK   23  A    between atoms: C_62  and  N_63 
REMARK   24  A    between atoms: C_62  and  C_67 
REMARK   25  A    between atoms: C_67  and  C_68 
REMARK   26  A    between atoms: C_68  and  C_69 
REMARK   27  A    between atoms: C_72  and  C_73 
REMARK   28  A    between atoms: C_42  and  C_43 
REMARK       I    between atoms: C_43  and  N_44 
ROOT
HETATM    1  C           0       8.026 -17.823   4.727  0.00  0.00     0.241 C 
HETATM    2  O           0       7.065 -18.081   3.992  0.00  0.00    -0.271 OA
HETATM    3  N           0       7.901 -17.778   6.074  0.00  0.00    -0.346 N 
HETATM    4  H           0       8.703 -17.528   6.640  0.00  0.00     0.163 HD
ENDROOT
BRANCH   3   5
HETATM    5  C           0       6.665 -18.222   6.715  0.00  0.00     0.176 C 
BRANCH   5   6
HETATM    6  C           0       6.882 -19.500   7.542  0.00  0.00     0.036 C 
BRANCH   6   7
HETATM    7  C           0       8.375 -19.755   7.776  0.00  0.00     0.023 C 
BRANCH   7   8
HETATM    8  C           0       8.804 -21.206   7.556  0.00  0.00     0.138 C 
BRANCH   8   9
HETATM    9  N           0      10.253 -21.210   7.365  0.00  0.00    -0.227 N 
HETATM   10  C           0      11.086 -22.215   7.615  0.00  0.00     0.665 C 
HETATM   11  N           0      10.661 -23.368   8.150  0.00  0.00    -0.235 N 
HETATM   12  N           0      12.383 -22.043   7.299  0.00  0.00    -0.235 N 
HETATM   13  H           0      11.274 -24.168   8.200  0.00  0.00     0.174 HD
HETATM   14  H           0       9.680 -23.529   8.314  0.00  0.00     0.174 HD
HETATM   15  H           0      13.085 -22.658   7.681  0.00  0.00     0.174 HD
HETATM   16  H           0      12.650 -21.095   7.022  0.00  0.00     0.174 HD
HETATM   17  H           0      10.720 -20.354   7.022  0.00  0.00     0.177 HD
ENDBRANCH   8   9
ENDBRANCH   7   8
ENDBRANCH   6   7
ENDBRANCH   5   6
BRANCH   5  18
HETATM   18  C           0       5.887 -17.130   7.482  0.00  0.00     0.243 C 
HETATM   19  N           0       4.760 -16.584   6.951  0.00  0.00    -0.337 N 
HETATM   20  C           0       3.970 -15.636   7.755  0.00  0.00     0.179 C 
HETATM   21  C           0       4.421 -16.452   5.518  0.00  0.00     0.127 C 
HETATM   22  C           0       3.286 -14.706   6.715  0.00  0.00     0.037 C 
HETATM   23  C           0       4.044 -14.971   5.405  0.00  0.00     0.022 C 
HETATM   24  O           0       6.292 -16.832   8.609  0.00  0.00    -0.271 OA
BRANCH  20  25
HETATM   25  C           0       2.917 -16.283   8.672  0.00  0.00     0.241 C 
HETATM   26  N           0       1.632 -15.863   8.557  0.00  0.00    -0.344 N 
HETATM   27  H           0       1.392 -15.149   7.873  0.00  0.00     0.163 HD
HETATM   28  O           0       3.279 -17.141   9.480  0.00  0.00    -0.271 OA
BRANCH  26  29
HETATM   29  C           0       0.602 -16.276   9.500  0.00  0.00     0.200 C 
BRANCH  29  30
HETATM   30  C           0      -0.097 -17.613   9.187  0.00  0.00     0.242 C 
HETATM   31  N           0       0.515 -18.746   9.561  0.00  0.00    -0.354 N 
HETATM   32  H           0       1.387 -18.756  10.084  0.00  0.00     0.162 HD
HETATM   33  O           0      -1.189 -17.591   8.599  0.00  0.00    -0.271 OA
BRANCH  31  34
HETATM   34  C           0      -0.057 -20.065   9.371  0.00  0.00     0.203 C 
BRANCH  34  35
HETATM   35  C           0       0.688 -20.820   8.232  0.00  0.00     0.307 C 
HETATM   36  O           0       1.945 -20.733   8.236  0.00  0.00    -0.186 OA
HETATM   37  O           0      -0.052 -21.438   7.430  0.00  0.00    -0.186 OA
ENDBRANCH  34  35
ENDBRANCH  31  34
ENDBRANCH  29  30
BRANCH  29  38
HETATM   38  C           0      -0.463 -15.172   9.676  0.00  0.00     0.199 C 
BRANCH  38  39
HETATM   39  O           0      -0.892 -14.621   8.445  0.00  0.00    -0.398 OA
HETATM   40  H           0      -0.634 -15.208   7.714  0.00  0.00     0.209 HD
ENDBRANCH  38  39
ENDBRANCH  29  38
ENDBRANCH  26  29
ENDBRANCH  20  25
ENDBRANCH   5  18
ENDBRANCH   3   5
BRANCH   1  41
HETATM   41  C           0       9.435 -17.585   4.145  0.00  0.00     0.185 C 
BRANCH  41  42
HETATM   42  C           0       9.937 -18.777   3.308  0.00  0.00     0.137 C 
BRANCH  42  43
HETATM   43  C           0      10.282 -20.029   4.116  0.00  0.00     0.217 C 
HETATM   44  N           0       9.409 -21.047   3.955  0.00  0.00    -0.370 N 
HETATM   45  H           0       9.531 -21.859   4.544  0.00  0.00     0.159 HD
HETATM   46  H           0       8.552 -20.960   3.395  0.00  0.00     0.159 HD
HETATM   47  O           0      11.256 -20.071   4.871  0.00  0.00    -0.274 OA
ENDBRANCH  42  43
ENDBRANCH  41  42
BRANCH  41  48
HETATM   48  N           0      10.425 -17.340   5.187  0.00  0.00    -0.346 N 
HETATM   49  H           0      10.307 -17.803   6.078  0.00  0.00     0.163 HD
HETATM   50  C           0      11.439 -16.458   5.064  0.00  0.00     0.241 C 
HETATM   51  O           0      11.608 -15.754   4.060  0.00  0.00    -0.271 OA
BRANCH  50  52
HETATM   52  C           0      12.427 -16.377   6.243  0.00  0.00     0.177 C 
BRANCH  52  53
HETATM   53  N           0      12.618 -15.009   6.715  0.00  0.00    -0.346 N 
HETATM   54  H           0      12.023 -14.660   7.455  0.00  0.00     0.163 HD
HETATM   55  C           0      13.649 -14.236   6.279  0.00  0.00     0.236 C 
HETATM   56  O           0      14.484 -14.628   5.468  0.00  0.00    -0.272 OA
BRANCH  55  57
HETATM   57  C           0      13.747 -12.825   6.875  0.00  0.00     0.225 C 
BRANCH  57  58
HETATM   58  N           0      14.041 -11.779   5.897  0.00  0.00    -0.351 N 
HETATM   59  H           0      13.257 -11.378   5.401  0.00  0.00     0.163 HD
HETATM   60  C           0      15.260 -11.191   5.897  0.00  0.00     0.248 C 
HETATM   61  O           0      16.164 -11.580   6.645  0.00  0.00    -0.271 OA
BRANCH  60  62
HETATM   62  C           0      15.568 -10.036   4.937  0.00  0.00     0.275 C 
BRANCH  62  63
HETATM   63  N           0      14.430  -9.744   3.973  0.00  0.00    -0.066 N 
HETATM   64  H           0      14.759  -9.575   3.016  0.00  0.00     0.275 HD
HETATM   65  H           0      13.717 -10.479   3.938  0.00  0.00     0.275 HD
HETATM   66  H           0      13.943  -8.892   4.269  0.00  0.00     0.275 HD
ENDBRANCH  62  63
BRANCH  62  67
HETATM   67  C           0      15.990  -8.725   5.620  0.00  0.00     0.053 C 
BRANCH  67  68
HETATM   68  C           0      14.853  -7.992   6.341  0.00  0.00     0.115 C 
BRANCH  68  69
HETATM   69  C           0      14.718  -8.240   7.857  0.00  0.00     0.172 C 
HETATM   70  O           0      13.592  -8.085   8.400  0.00  0.00    -0.648 OA
HETATM   71  O           0      15.787  -8.571   8.464  0.00  0.00    -0.648 OA
ENDBRANCH  68  69
ENDBRANCH  67  68
ENDBRANCH  62  67
ENDBRANCH  60  62
ENDBRANCH  57  58
ENDBRANCH  55  57
ENDBRANCH  52  53
BRANCH  52  72
HETATM   72  C           0      11.976 -17.260   7.428  0.00  0.00     0.038 C 
BRANCH  72  73
HETATM   73  C           0      11.538 -16.533   8.714  0.00  0.00    -0.020 C 
HETATM   74  C           0      10.035 -16.685   8.994  0.00  0.00     0.009 C 
HETATM   75  C           0      12.370 -17.055   9.897  0.00  0.00     0.009 C 
ENDBRANCH  72  73
ENDBRANCH  52  72
ENDBRANCH  50  52
ENDBRANCH  41  48
ENDBRANCH   1  41
TORSDOF 28
ENDMDL
MODEL 4
REMARK VINA RESULT:      -4.6     11.095     17.513
REMARK  28 active torsions:
REMARK  status: ('A' for Active; 'I' for Inactive)
REMARK       I    between atoms: C_1  and  N_3 
REMARK    1  A    between atoms: C_1  and  C_41 
REMARK    2  A    between atoms: N_3  and  C_5 
REMARK    3  A    between atoms: C_5  and  C_6 
REMARK    4  A    between atoms: C_5  and  C_18 
REMARK       I    between atoms: C_18  and  N_19 
REMARK    5  A    between atoms: C_20  and  C_25 
REMARK       I    between atoms: C_25  and  N_26 
REMARK    6  A    between atoms: N_26  and  C_29 
REMARK    7  A    between atoms: C_29  and  C_30 
REMARK    8  A    between atoms: C_29  and  C_38 
REMARK       I    between atoms: C_30  and  N_31 
REMARK    9  A    between atoms: N_31  and  C_34 
REMARK   10  A    between atoms: C_34  and  C_35 
REMARK   11  A    between atoms: C_38  and  O_39 
REMARK   12  A    between atoms: C_6  and  C_7 
REMARK   13  A    between atoms: C_7  and  C_8 
REMARK   14  A    between atoms: C_8  and  N_9 
REMARK       I    between atoms: N_9  and  C_10 
REMARK       I    between atoms: C_10  and  N_12 
REMARK   15  A    between atoms: C_41  and  C_42 
REMARK   16  A    between atoms: C_41  and  N_48 
REMARK       I    between atoms: N_48  and  C_50 
REMARK   17  A    between atoms: C_50  and  C_52 
REMARK   18  A    between atoms: C_52  and  N_53 
REMARK   19  A    between atoms: C_52  and  C_72 
REMARK       I    between atoms: N_53  and  C_55 
REMARK   20  A    between atoms: C_55  and  C_57 
REMARK   21  A    between atoms: C_57  and  N_58 
REMARK       I    between atoms: N_58  and  C_60 
REMARK   22  A    between atoms: C_60  and  C_62 
REMARK   23  A    between atoms: C_62  and  N_63 
REMARK   24  A    between atoms: C_62  and  C_67 
REMARK   25  A    between atoms: C_67  and  C_68 
REMARK   26  A    between atoms: C_68  and  C_69 
REMARK   27  A    between atoms: C_72  and  C_73 
REMARK   28  A    between atoms: C_42  and  C_43 
REMARK       I    between atoms: C_43  and  N_44 
ROOT
HETATM    1  C           0      -5.374 -16.055   9.382  0.00  0.00     0.241 C 
HETATM    2  O           0      -4.268 -15.617   9.718  0.00  0.00    -0.271 OA
HETATM    3  N           0      -5.587 -17.378   9.186  0.00  0.00    -0.346 N 
HETATM    4  H           0      -6.498 -17.694   8.876  0.00  0.00     0.163 HD
ENDROOT
BRANCH   3   5
HETATM    5  C           0      -4.561 -18.352   9.555  0.00  0.00     0.176 C 
BRANCH   5   6
HETATM    6  C           0      -5.180 -19.649  10.101  0.00  0.00     0.036 C 
BRANCH   6   7
HETATM    7  C           0      -6.707 -19.631   9.959  0.00  0.00     0.023 C 
BRANCH   7   8
HETATM    8  C           0      -7.283 -20.844   9.229  0.00  0.00     0.138 C 
BRANCH   8   9
HETATM    9  N           0      -7.973 -20.352   8.039  0.00  0.00    -0.227 N 
HETATM   10  C           0      -7.457 -20.205   6.822  0.00  0.00     0.665 C 
HETATM   11  N           0      -6.165 -20.455   6.569  0.00  0.00    -0.235 N 
HETATM   12  N           0      -8.284 -19.805   5.839  0.00  0.00    -0.235 N 
HETATM   13  H           0      -5.822 -20.478   5.621  0.00  0.00     0.174 HD
HETATM   14  H           0      -5.562 -20.830   7.285  0.00  0.00     0.174 HD
HETATM   15  H           0      -7.908 -19.449   4.973  0.00  0.00     0.174 HD
HETATM   16  H           0      -9.216 -19.509   6.136  0.00  0.00     0.174 HD
HETATM   17  H           0      -8.961 -20.057   8.114  0.00  0.00     0.177 HD
ENDBRANCH   8   9
ENDBRANCH   7   8
ENDBRANCH   6   7
ENDBRANCH   5   6
BRANCH   5  18
HETATM   18  C           0      -3.473 -18.603   8.488  0.00  0.00     0.243 C 
HETATM   19  N           0      -2.216 -18.971   8.857  0.00  0.00    -0.337 N 
HETATM   20  C           0      -1.234 -19.324   7.818  0.00  0.00     0.179 C 
HETATM   21  C           0      -1.531 -18.657  10.129  0.00  0.00     0.127 C 
HETATM   22  C           0       0.146 -18.967   8.438  0.00  0.00     0.037 C 
HETATM   23  C           0      -0.194 -18.084   9.649  0.00  0.00     0.022 C 
HETATM   24  O           0      -3.812 -18.523   7.304  0.00  0.00    -0.271 OA
BRANCH  20  25
HETATM   25  C           0      -1.259 -20.797   7.376  0.00  0.00     0.241 C 
HETATM   26  N           0      -2.182 -21.167   6.451  0.00  0.00    -0.344 N 
HETATM   27  H           0      -2.819 -20.473   6.069  0.00  0.00     0.163 HD
HETATM   28  O           0      -0.458 -21.585   7.884  0.00  0.00    -0.271 OA
BRANCH  26  29
HETATM   29  C           0      -2.408 -22.563   6.108  0.00  0.00     0.200 C 
BRANCH  29  30
HETATM   30  C           0      -2.920 -22.828   4.678  0.00  0.00     0.242 C 
HETATM   31  N           0      -4.198 -22.533   4.402  0.00  0.00    -0.354 N 
HETATM   32  H           0      -4.824 -22.099   5.076  0.00  0.00     0.162 HD
HETATM   33  O           0      -2.135 -23.305   3.844  0.00  0.00    -0.271 OA
BRANCH  31  34
HETATM   34  C           0      -4.789 -22.688   3.086  0.00  0.00     0.203 C 
BRANCH  34  35
HETATM   35  C           0      -6.302 -22.329   3.125  0.00  0.00     0.307 C 
HETATM   36  O           0      -6.597 -21.210   3.625  0.00  0.00    -0.186 OA
HETATM   37  O           0      -7.069 -23.201   2.649  0.00  0.00    -0.186 OA
ENDBRANCH  34  35
ENDBRANCH  31  34
ENDBRANCH  29  30
BRANCH  29  38
HETATM   38  C           0      -3.356 -23.237   7.123  0.00  0.00     0.199 C 
BRANCH  38  39
HETATM   39  O           0      -4.374 -22.368   7.584  0.00  0.00    -0.398 OA
HETATM   40  H           0      -4.706 -22.676   8.444  0.00  0.00     0.209 HD
ENDBRANCH  38  39
ENDBRANCH  29  38
ENDBRANCH  26  29
ENDBRANCH  20  25
ENDBRANCH   5  18
ENDBRANCH   3   5
BRANCH   1  41
HETATM   41  C           0      -6.587 -15.117   9.212  0.00  0.00     0.185 C 
BRANCH  41  42
HETATM   42  C           0      -7.919 -15.886   9.125  0.00  0.00     0.137 C 
BRANCH  42  43
HETATM   43  C           0      -8.324 -16.312   7.713  0.00  0.00     0.217 C 
HETATM   44  N           0      -9.527 -15.841   7.319  0.00  0.00    -0.370 N 
HETATM   45  H           0      -9.889 -16.176   6.437  0.00  0.00     0.159 HD
HETATM   46  H           0     -10.144 -15.305   7.941  0.00  0.00     0.159 HD
HETATM   47  O           0      -7.615 -17.051   7.026  0.00  0.00    -0.274 OA
ENDBRANCH  42  43
ENDBRANCH  41  42
BRANCH  41  48
HETATM   48  N           0      -6.483 -14.294   8.013  0.00  0.00    -0.346 N 
HETATM   49  H           0      -5.983 -14.669   7.218  0.00  0.00     0.163 HD
HETATM   50  C           0      -6.932 -13.025   7.935  0.00  0.00     0.241 C 
HETATM   51  O           0      -7.454 -12.430   8.886  0.00  0.00    -0.271 OA
BRANCH  50  52
HETATM   52  C           0      -6.793 -12.329   6.568  0.00  0.00     0.177 C 
BRANCH  52  53
HETATM   53  N           0      -8.067 -12.233   5.861  0.00  0.00    -0.346 N 
HETATM   54  H           0      -8.553 -11.345   5.850  0.00  0.00     0.163 HD
HETATM   55  C           0      -8.554 -13.260   5.115  0.00  0.00     0.236 C 
HETATM   56  O           0      -7.966 -14.330   4.983  0.00  0.00    -0.272 OA
BRANCH  55  57
HETATM   57  C           0      -9.892 -13.017   4.404  0.00  0.00     0.225 C 
BRANCH  57  58
HETATM   58  N           0     -10.557 -14.234   3.943  0.00  0.00    -0.351 N 
HETATM   59  H           0     -10.111 -15.114   4.159  0.00  0.00     0.163 HD
HETATM   60  C           0     -11.843 -14.171   3.522  0.00  0.00     0.248 C 
HETATM   61  O           0     -12.440 -13.093   3.432  0.00  0.00    -0.271 OA
BRANCH  60  62
HETATM   62  C           0     -12.590 -15.445   3.110  0.00  0.00     0.275 C 
BRANCH  62  63
HETATM   63  N           0     -12.805 -15.550   1.610  0.00  0.00    -0.066 N 
HETATM   64  H           0     -11.938 -15.418   1.077  0.00  0.00     0.275 HD
HETATM   65  H           0     -13.227 -16.436   1.313  0.00  0.00     0.275 HD
HETATM   66  H           0     -13.451 -14.814   1.305  0.00  0.00     0.275 HD
ENDBRANCH  62  63
BRANCH  62  67
HETATM   67  C           0     -11.962 -16.753   3.616  0.00  0.00     0.053 C 
BRANCH  67  68
HETATM   68  C           0     -12.414 -17.172   5.020  0.00  0.00     0.115 C 
BRANCH  68  69
HETATM   69  C           0     -11.829 -18.485   5.576  0.00  0.00     0.172 C 
HETATM   70  O           0     -12.367 -19.576   5.250  0.00  0.00    -0.648 OA
HETATM   71  O           0     -10.833 -18.363   6.360  0.00  0.00    -0.648 OA
ENDBRANCH  68  69
ENDBRANCH  67  68
ENDBRANCH  62  67
ENDBRANCH  60  62
ENDBRANCH  57  58
ENDBRANCH  55  57
ENDBRANCH  52  53
BRANCH  52  72
HETATM   72  C           0      -6.185 -10.914   6.706  0.00  0.00     0.038 C 
BRANCH  72  73
HETATM   73  C           0      -7.165  -9.756   6.977  0.00  0.00    -0.020 C 
HETATM   74  C           0      -6.888  -9.052   8.313  0.00  0.00     0.009 C 
HETATM   75  C           0      -7.103  -8.759   5.809  0.00  0.00     0.009 C 
ENDBRANCH  72  73
ENDBRANCH  52  72
ENDBRANCH  50  52
ENDBRANCH  41  48
ENDBRANCH   1  41
TORSDOF 28
ENDMDL
MODEL 5
REMARK VINA RESULT:      -4.5      6.710     13.390
REMARK  28 active torsions:
REMARK  status: ('A' for Active; 'I' for Inactive)
REMARK       I    between atoms: C_1  and  N_3 
REMARK    1  A    between atoms: C_1  and  C_41 
REMARK    2  A    between atoms: N_3  and  C_5 
REMARK    3  A    between atoms: C_5  and  C_6 
REMARK    4  A    between atoms: C_5  and  C_18 
REMARK       I    between atoms: C_18  and  N_19 
REMARK    5  A    between atoms: C_20  and  C_25 
REMARK       I    between atoms: C_25  and  N_26 
REMARK    6  A    between atoms: N_26  and  C_29 
REMARK    7  A    between atoms: C_29  and  C_30 
REMARK    8  A    between atoms: C_29  and  C_38 
REMARK       I    between atoms: C_30  and  N_31 
REMARK    9  A    between atoms: N_31  and  C_34 
REMARK   10  A    between atoms: C_34  and  C_35 
REMARK   11  A    between atoms: C_38  and  O_39 
REMARK   12  A    between atoms: C_6  and  C_7 
REMARK   13  A    between atoms: C_7  and  C_8 
REMARK   14  A    between atoms: C_8  and  N_9 
REMARK       I    between atoms: N_9  and  C_10 
REMARK       I    between atoms: C_10  and  N_12 
REMARK   15  A    between atoms: C_41  and  C_42 
REMARK   16  A    between atoms: C_41  and  N_48 
REMARK       I    between atoms: N_48  and  C_50 
REMARK   17  A    between atoms: C_50  and  C_52 
REMARK   18  A    between atoms: C_52  and  N_53 
REMARK   19  A    between atoms: C_52  and  C_72 
REMARK       I    between atoms: N_53  and  C_55 
REMARK   20  A    between atoms: C_55  and  C_57 
REMARK   21  A    between atoms: C_57  and  N_58 
REMARK       I    between atoms: N_58  and  C_60 
REMARK   22  A    between atoms: C_60  and  C_62 
REMARK   23  A    between atoms: C_62  and  N_63 
REMARK   24  A    between atoms: C_62  and  C_67 
REMARK   25  A    between atoms: C_67  and  C_68 
REMARK   26  A    between atoms: C_68  and  C_69 
REMARK   27  A    between atoms: C_72  and  C_73 
REMARK   28  A    between atoms: C_42  and  C_43 
REMARK       I    between atoms: C_43  and  N_44 
ROOT
HETATM    1  C           0      -2.548 -24.390   3.348  0.00  0.00     0.241 C 
HETATM    2  O           0      -1.967 -23.397   2.894  0.00  0.00    -0.271 OA
HETATM    3  N           0      -3.885 -24.557   3.215  0.00  0.00    -0.346 N 
HETATM    4  H           0      -4.329 -25.366   3.631  0.00  0.00     0.163 HD
ENDROOT
BRANCH   3   5
HETATM    5  C           0      -4.658 -23.658   2.360  0.00  0.00     0.176 C 
BRANCH   5   6
HETATM    6  C           0      -5.767 -24.408   1.604  0.00  0.00     0.036 C 
BRANCH   6   7
HETATM    7  C           0      -5.614 -25.924   1.768  0.00  0.00     0.023 C 
BRANCH   7   8
HETATM    8  C           0      -6.935 -26.670   1.956  0.00  0.00     0.138 C 
BRANCH   8   9
HETATM    9  N           0      -6.618 -28.086   2.126  0.00  0.00    -0.227 N 
HETATM   10  C           0      -7.334 -28.988   2.791  0.00  0.00     0.665 C 
HETATM   11  N           0      -8.449 -28.654   3.455  0.00  0.00    -0.235 N 
HETATM   12  N           0      -6.906 -30.264   2.766  0.00  0.00    -0.235 N 
HETATM   13  H           0      -9.056 -29.367   3.832  0.00  0.00     0.174 HD
HETATM   14  H           0      -8.814 -27.717   3.410  0.00  0.00     0.174 HD
HETATM   15  H           0      -7.259 -30.931   3.435  0.00  0.00     0.174 HD
HETATM   16  H           0      -5.983 -30.415   2.353  0.00  0.00     0.174 HD
HETATM   17  H           0      -5.744 -28.461   1.720  0.00  0.00     0.177 HD
ENDBRANCH   8   9
ENDBRANCH   7   8
ENDBRANCH   6   7
ENDBRANCH   5   6
BRANCH   5  18
HETATM   18  C           0      -5.158 -22.364   3.041  0.00  0.00     0.243 C 
HETATM   19  N           0      -6.193 -22.405   3.922  0.00  0.00    -0.337 N 
HETATM   20  C           0      -6.569 -21.180   4.650  0.00  0.00     0.179 C 
HETATM   21  C           0      -7.300 -23.385   3.956  0.00  0.00     0.127 C 
HETATM   22  C           0      -8.089 -21.338   4.935  0.00  0.00     0.037 C 
HETATM   23  C           0      -8.537 -22.482   4.011  0.00  0.00     0.022 C 
HETATM   24  O           0      -4.538 -21.324   2.804  0.00  0.00    -0.271 OA
BRANCH  20  25
HETATM   25  C           0      -5.798 -20.943   5.960  0.00  0.00     0.241 C 
HETATM   26  N           0      -4.442 -20.921   5.904  0.00  0.00    -0.344 N 
HETATM   27  H           0      -3.972 -21.049   5.011  0.00  0.00     0.163 HD
HETATM   28  O           0      -6.434 -20.797   7.007  0.00  0.00    -0.271 OA
BRANCH  26  29
HETATM   29  C           0      -3.623 -20.889   7.107  0.00  0.00     0.200 C 
BRANCH  29  30
HETATM   30  C           0      -2.903 -19.557   7.393  0.00  0.00     0.242 C 
HETATM   31  N           0      -2.911 -19.095   8.652  0.00  0.00    -0.354 N 
HETATM   32  H           0      -3.325 -19.608   9.427  0.00  0.00     0.162 HD
HETATM   33  O           0      -2.351 -18.965   6.453  0.00  0.00    -0.271 OA
BRANCH  31  34
HETATM   34  C           0      -2.230 -17.882   9.063  0.00  0.00     0.203 C 
BRANCH  34  35
HETATM   35  C           0      -0.735 -18.178   9.376  0.00  0.00     0.307 C 
HETATM   36  O           0       0.112 -17.456   8.785  0.00  0.00    -0.186 OA
HETATM   37  O           0      -0.536 -19.112  10.191  0.00  0.00    -0.186 OA
ENDBRANCH  34  35
ENDBRANCH  31  34
ENDBRANCH  29  30
BRANCH  29  38
HETATM   38  C           0      -2.593 -22.039   7.107  0.00  0.00     0.199 C 
BRANCH  38  39
HETATM   39  O           0      -1.886 -22.141   5.885  0.00  0.00    -0.398 OA
HETATM   40  H           0      -1.523 -21.273   5.641  0.00  0.00     0.209 HD
ENDBRANCH  38  39
ENDBRANCH  29  38
ENDBRANCH  26  29
ENDBRANCH  20  25
ENDBRANCH   5  18
ENDBRANCH   3   5
BRANCH   1  41
HETATM   41  C           0      -1.767 -25.520   4.051  0.00  0.00     0.185 C 
BRANCH  41  42
HETATM   42  C           0      -2.669 -26.706   4.441  0.00  0.00     0.137 C 
BRANCH  42  43
HETATM   43  C           0      -2.569 -27.920   3.516  0.00  0.00     0.217 C 
HETATM   44  N           0      -3.630 -28.753   3.583  0.00  0.00    -0.370 N 
HETATM   45  H           0      -3.568 -29.622   3.071  0.00  0.00     0.159 HD
HETATM   46  H           0      -4.400 -28.618   4.249  0.00  0.00     0.159 HD
HETATM   47  O           0      -1.580 -28.120   2.807  0.00  0.00    -0.274 OA
ENDBRANCH  42  43
ENDBRANCH  41  42
BRANCH  41  48
HETATM   48  N           0      -1.109 -25.059   5.268  0.00  0.00    -0.346 N 
HETATM   49  H           0      -1.507 -24.268   5.757  0.00  0.00     0.163 HD
HETATM   50  C           0       0.054 -25.565   5.729  0.00  0.00     0.241 C 
HETATM   51  O           0       0.685 -26.454   5.145  0.00  0.00    -0.271 OA
BRANCH  50  52
HETATM   52  C           0       0.569 -24.998   7.065  0.00  0.00     0.177 C 
BRANCH  52  53
HETATM   53  N           0       0.428 -23.547   7.145  0.00  0.00    -0.346 N 
HETATM   54  H           0      -0.409 -23.117   6.774  0.00  0.00     0.163 HD
HETATM   55  C           0       1.325 -22.774   7.814  0.00  0.00     0.236 C 
HETATM   56  O           0       2.306 -23.234   8.392  0.00  0.00    -0.272 OA
BRANCH  55  57
HETATM   57  C           0       1.043 -21.265   7.842  0.00  0.00     0.225 C 
BRANCH  57  58
HETATM   58  N           0       2.148 -20.439   7.360  0.00  0.00    -0.351 N 
HETATM   59  H           0       2.231 -20.317   6.361  0.00  0.00     0.163 HD
HETATM   60  C           0       2.820 -19.652   8.232  0.00  0.00     0.248 C 
HETATM   61  O           0       2.581 -19.681   9.444  0.00  0.00    -0.271 OA
BRANCH  60  62
HETATM   62  C           0       3.929 -18.714   7.740  0.00  0.00     0.275 C 
BRANCH  62  63
HETATM   63  N           0       4.252 -18.896   6.267  0.00  0.00    -0.066 N 
HETATM   64  H           0       3.639 -19.580   5.810  0.00  0.00     0.275 HD
HETATM   65  H           0       4.217 -18.026   5.725  0.00  0.00     0.275 HD
HETATM   66  H           0       5.209 -19.250   6.169  0.00  0.00     0.275 HD
ENDBRANCH  62  63
BRANCH  62  67
HETATM   67  C           0       3.681 -17.222   8.016  0.00  0.00     0.053 C 
BRANCH  67  68
HETATM   68  C           0       4.587 -16.273   7.223  0.00  0.00     0.115 C 
BRANCH  68  69
HETATM   69  C           0       4.407 -14.764   7.480  0.00  0.00     0.172 C 
HETATM   70  O           0       5.289 -14.149   8.136  0.00  0.00    -0.648 OA
HETATM   71  O           0       3.342 -14.243   7.015  0.00  0.00    -0.648 OA
ENDBRANCH  68  69
ENDBRANCH  67  68
ENDBRANCH  62  67
ENDBRANCH  60  62
ENDBRANCH  57  58
ENDBRANCH  55  57
ENDBRANCH  52  53
BRANCH  52  72
HETATM   72  C           0      -0.148 -25.642   8.274  0.00  0.00     0.038 C 
BRANCH  72  73
HETATM   73  C           0       0.549 -26.844   8.939  0.00  0.00    -0.020 C 
HETATM   74  C           0      -0.037 -28.190   8.487  0.00  0.00     0.009 C 
HETATM   75  C           0       2.057 -26.779   8.647  0.00  0.00     0.009 C 
ENDBRANCH  72  73
ENDBRANCH  52  72
ENDBRANCH  50  52
ENDBRANCH  41  48
ENDBRANCH   1  41
TORSDOF 28
ENDMDL
MODEL 6
REMARK VINA RESULT:      -4.5      5.545     14.743
REMARK  28 active torsions:
REMARK  status: ('A' for Active; 'I' for Inactive)
REMARK       I    between atoms: C_1  and  N_3 
REMARK    1  A    between atoms: C_1  and  C_41 
REMARK    2  A    between atoms: N_3  and  C_5 
REMARK    3  A    between atoms: C_5  and  C_6 
REMARK    4  A    between atoms: C_5  and  C_18 
REMARK       I    between atoms: C_18  and  N_19 
REMARK    5  A    between atoms: C_20  and  C_25 
REMARK       I    between atoms: C_25  and  N_26 
REMARK    6  A    between atoms: N_26  and  C_29 
REMARK    7  A    between atoms: C_29  and  C_30 
REMARK    8  A    between atoms: C_29  and  C_38 
REMARK       I    between atoms: C_30  and  N_31 
REMARK    9  A    between atoms: N_31  and  C_34 
REMARK   10  A    between atoms: C_34  and  C_35 
REMARK   11  A    between atoms: C_38  and  O_39 
REMARK   12  A    between atoms: C_6  and  C_7 
REMARK   13  A    between atoms: C_7  and  C_8 
REMARK   14  A    between atoms: C_8  and  N_9 
REMARK       I    between atoms: N_9  and  C_10 
REMARK       I    between atoms: C_10  and  N_12 
REMARK   15  A    between atoms: C_41  and  C_42 
REMARK   16  A    between atoms: C_41  and  N_48 
REMARK       I    between atoms: N_48  and  C_50 
REMARK   17  A    between atoms: C_50  and  C_52 
REMARK   18  A    between atoms: C_52  and  N_53 
REMARK   19  A    between atoms: C_52  and  C_72 
REMARK       I    between atoms: N_53  and  C_55 
REMARK   20  A    between atoms: C_55  and  C_57 
REMARK   21  A    between atoms: C_57  and  N_58 
REMARK       I    between atoms: N_58  and  C_60 
REMARK   22  A    between atoms: C_60  and  C_62 
REMARK   23  A    between atoms: C_62  and  N_63 
REMARK   24  A    between atoms: C_62  and  C_67 
REMARK   25  A    between atoms: C_67  and  C_68 
REMARK   26  A    between atoms: C_68  and  C_69 
REMARK   27  A    between atoms: C_72  and  C_73 
REMARK   28  A    between atoms: C_42  and  C_43 
REMARK       I    between atoms: C_43  and  N_44 
ROOT
HETATM    1  C           0      -3.864 -21.713   8.476  0.00  0.00     0.241 C 
HETATM    2  O           0      -4.277 -20.642   8.933  0.00  0.00    -0.271 OA
HETATM    3  N           0      -2.566 -22.082   8.587  0.00  0.00    -0.346 N 
HETATM    4  H           0      -2.258 -22.952   8.168  0.00  0.00     0.163 HD
ENDROOT
BRANCH   3   5
HETATM    5  C           0      -1.649 -21.309   9.421  0.00  0.00     0.176 C 
BRANCH   5   6
HETATM    6  C           0      -0.713 -22.220  10.232  0.00  0.00     0.036 C 
BRANCH   6   7
HETATM    7  C           0      -1.042 -23.698   9.991  0.00  0.00     0.023 C 
BRANCH   7   8
HETATM    8  C           0       0.150 -24.540   9.536  0.00  0.00     0.138 C 
BRANCH   8   9
HETATM    9  N           0      -0.039 -24.836   8.118  0.00  0.00    -0.227 N 
HETATM   10  C           0       0.481 -24.172   7.090  0.00  0.00     0.665 C 
HETATM   11  N           0       1.224 -23.071   7.264  0.00  0.00    -0.235 N 
HETATM   12  N           0       0.246 -24.653   5.855  0.00  0.00    -0.235 N 
HETATM   13  H           0       1.728 -22.663   6.491  0.00  0.00     0.174 HD
HETATM   14  H           0       1.468 -22.754   8.189  0.00  0.00     0.174 HD
HETATM   15  H           0       0.402 -24.071   5.046  0.00  0.00     0.174 HD
HETATM   16  H           0      -0.435 -25.413   5.797  0.00  0.00     0.174 HD
HETATM   17  H           0      -0.650 -25.623   7.843  0.00  0.00     0.177 HD
ENDBRANCH   8   9
ENDBRANCH   7   8
ENDBRANCH   6   7
ENDBRANCH   5   6
BRANCH   5  18
HETATM   18  C           0      -0.903 -20.164   8.700  0.00  0.00     0.243 C 
HETATM   19  N           0      -0.697 -18.973   9.326  0.00  0.00    -0.337 N 
HETATM   20  C           0       0.123 -17.944   8.664  0.00  0.00     0.179 C 
HETATM   21  C           0      -1.527 -18.367  10.389  0.00  0.00     0.127 C 
HETATM   22  C           0      -0.426 -16.593   9.202  0.00  0.00     0.037 C 
HETATM   23  C           0      -1.772 -16.955   9.848  0.00  0.00     0.022 C 
HETATM   24  O           0      -0.451 -20.402   7.577  0.00  0.00    -0.271 OA
BRANCH  20  25
HETATM   25  C           0       1.635 -18.052   8.926  0.00  0.00     0.241 C 
HETATM   26  N           0       2.475 -17.905   7.870  0.00  0.00    -0.344 N 
HETATM   27  H           0       2.095 -17.719   6.945  0.00  0.00     0.163 HD
HETATM   28  O           0       2.025 -18.283  10.073  0.00  0.00    -0.271 OA
BRANCH  26  29
HETATM   29  C           0       3.901 -18.173   7.979  0.00  0.00     0.200 C 
BRANCH  29  30
HETATM   30  C           0       4.811 -17.358   7.039  0.00  0.00     0.242 C 
HETATM   31  N           0       4.819 -17.677   5.738  0.00  0.00    -0.354 N 
HETATM   32  H           0       4.217 -18.394   5.340  0.00  0.00     0.162 HD
HETATM   33  O           0       5.501 -16.446   7.522  0.00  0.00    -0.271 OA
BRANCH  31  34
HETATM   34  C           0       5.592 -16.958   4.742  0.00  0.00     0.203 C 
BRANCH  34  35
HETATM   35  C           0       6.969 -17.647   4.523  0.00  0.00     0.307 C 
HETATM   36  O           0       7.901 -16.910   4.101  0.00  0.00    -0.186 OA
HETATM   37  O           0       7.001 -18.872   4.795  0.00  0.00    -0.186 OA
ENDBRANCH  34  35
ENDBRANCH  31  34
ENDBRANCH  29  30
BRANCH  29  38
HETATM   38  C           0       4.198 -19.677   7.800  0.00  0.00     0.199 C 
BRANCH  38  39
HETATM   39  O           0       5.489 -19.923   7.274  0.00  0.00    -0.398 OA
HETATM   40  H           0       5.432 -20.571   6.551  0.00  0.00     0.209 HD
ENDBRANCH  38  39
ENDBRANCH  29  38
ENDBRANCH  26  29
ENDBRANCH  20  25
ENDBRANCH   5  18
ENDBRANCH   3   5
BRANCH   1  41
HETATM   41  C           0      -4.821 -22.714   7.794  0.00  0.00     0.185 C 
BRANCH  41  42
HETATM   42  C           0      -4.452 -24.180   8.091  0.00  0.00     0.137 C 
BRANCH  42  43
HETATM   43  C           0      -3.661 -24.879   6.985  0.00  0.00     0.217 C 
HETATM   44  N           0      -4.105 -26.121   6.692  0.00  0.00    -0.370 N 
HETATM   45  H           0      -3.556 -26.667   6.043  0.00  0.00     0.159 HD
HETATM   46  H           0      -4.861 -26.579   7.216  0.00  0.00     0.159 HD
HETATM   47  O           0      -2.684 -24.353   6.448  0.00  0.00    -0.274 OA
ENDBRANCH  42  43
ENDBRANCH  41  42
BRANCH  41  48
HETATM   48  N           0      -4.838 -22.557   6.344  0.00  0.00    -0.346 N 
HETATM   49  H           0      -3.953 -22.521   5.856  0.00  0.00     0.163 HD
HETATM   50  C           0      -5.963 -22.360   5.626  0.00  0.00     0.241 C 
HETATM   51  O           0      -7.086 -22.270   6.136  0.00  0.00    -0.271 OA
BRANCH  50  52
HETATM   52  C           0      -5.797 -22.278   4.097  0.00  0.00     0.177 C 
BRANCH  52  53
HETATM   53  N           0      -4.661 -23.059   3.618  0.00  0.00    -0.346 N 
HETATM   54  H           0      -4.423 -23.918   4.097  0.00  0.00     0.163 HD
HETATM   55  C           0      -3.995 -22.735   2.477  0.00  0.00     0.236 C 
HETATM   56  O           0      -4.298 -21.773   1.775  0.00  0.00    -0.272 OA
BRANCH  55  57
HETATM   57  C           0      -2.835 -23.655   2.075  0.00  0.00     0.225 C 
BRANCH  57  58
HETATM   58  N           0      -3.170 -25.078   2.072  0.00  0.00    -0.351 N 
HETATM   59  H           0      -3.742 -25.416   1.311  0.00  0.00     0.163 HD
HETATM   60  C           0      -2.491 -25.923   2.883  0.00  0.00     0.248 C 
HETATM   61  O           0      -1.655 -25.508   3.693  0.00  0.00    -0.271 OA
BRANCH  60  62
HETATM   62  C           0      -2.766 -27.431   2.842  0.00  0.00     0.275 C 
BRANCH  62  63
HETATM   63  N           0      -1.720 -28.206   2.058  0.00  0.00    -0.066 N 
HETATM   64  H           0      -2.123 -28.989   1.532  0.00  0.00     0.275 HD
HETATM   65  H           0      -1.181 -27.629   1.406  0.00  0.00     0.275 HD
HETATM   66  H           0      -1.038 -28.610   2.708  0.00  0.00     0.275 HD
ENDBRANCH  62  63
BRANCH  62  67
HETATM   67  C           0      -2.947 -28.091   4.219  0.00  0.00     0.053 C 
BRANCH  67  68
HETATM   68  C           0      -1.683 -28.760   4.771  0.00  0.00     0.115 C 
BRANCH  68  69
HETATM   69  C           0      -0.755 -27.885   5.637  0.00  0.00     0.172 C 
HETATM   70  O           0      -1.218 -27.358   6.682  0.00  0.00    -0.648 OA
HETATM   71  O           0       0.435 -27.742   5.207  0.00  0.00    -0.648 OA
ENDBRANCH  68  69
ENDBRANCH  67  68
ENDBRANCH  62  67
ENDBRANCH  60  62
ENDBRANCH  57  58
ENDBRANCH  55  57
ENDBRANCH  52  53
BRANCH  52  72
HETATM   72  C           0      -7.074 -22.741   3.358  0.00  0.00     0.038 C 
BRANCH  72  73
HETATM   73  C           0      -7.138 -24.221   2.934  0.00  0.00    -0.020 C 
HETATM   74  C           0      -7.928 -25.085   3.927  0.00  0.00     0.009 C 
HETATM   75  C           0      -7.743 -24.315   1.524  0.00  0.00     0.009 C 
ENDBRANCH  72  73
ENDBRANCH  52  72
ENDBRANCH  50  52
ENDBRANCH  41  48
ENDBRANCH   1  41
TORSDOF 28
ENDMDL
MODEL 7
REMARK VINA RESULT:      -4.5      4.829      8.341
REMARK  28 active torsions:
REMARK  status: ('A' for Active; 'I' for Inactive)
REMARK       I    between atoms: C_1  and  N_3 
REMARK    1  A    between atoms: C_1  and  C_41 
REMARK    2  A    between atoms: N_3  and  C_5 
REMARK    3  A    between atoms: C_5  and  C_6 
REMARK    4  A    between atoms: C_5  and  C_18 
REMARK       I    between atoms: C_18  and  N_19 
REMARK    5  A    between atoms: C_20  and  C_25 
REMARK       I    between atoms: C_25  and  N_26 
REMARK    6  A    between atoms: N_26  and  C_29 
REMARK    7  A    between atoms: C_29  and  C_30 
REMARK    8  A    between atoms: C_29  and  C_38 
REMARK       I    between atoms: C_30  and  N_31 
REMARK    9  A    between atoms: N_31  and  C_34 
REMARK   10  A    between atoms: C_34  and  C_35 
REMARK   11  A    between atoms: C_38  and  O_39 
REMARK   12  A    between atoms: C_6  and  C_7 
REMARK   13  A    between atoms: C_7  and  C_8 
REMARK   14  A    between atoms: C_8  and  N_9 
REMARK       I    between atoms: N_9  and  C_10 
REMARK       I    between atoms: C_10  and  N_12 
REMARK   15  A    between atoms: C_41  and  C_42 
REMARK   16  A    between atoms: C_41  and  N_48 
REMARK       I    between atoms: N_48  and  C_50 
REMARK   17  A    between atoms: C_50  and  C_52 
REMARK   18  A    between atoms: C_52  and  N_53 
REMARK   19  A    between atoms: C_52  and  C_72 
REMARK       I    between atoms: N_53  and  C_55 
REMARK   20  A    between atoms: C_55  and  C_57 
REMARK   21  A    between atoms: C_57  and  N_58 
REMARK       I    between atoms: N_58  and  C_60 
REMARK   22  A    between atoms: C_60  and  C_62 
REMARK   23  A    between atoms: C_62  and  N_63 
REMARK   24  A    between atoms: C_62  and  C_67 
REMARK   25  A    between atoms: C_67  and  C_68 
REMARK   26  A    between atoms: C_68  and  C_69 
REMARK   27  A    between atoms: C_72  and  C_73 
REMARK   28  A    between atoms: C_42  and  C_43 
REMARK       I    between atoms: C_43  and  N_44 
ROOT
HETATM    1  C           0      13.957 -15.128   3.683  0.00  0.00     0.241 C 
HETATM    2  O           0      14.883 -15.924   3.875  0.00  0.00    -0.271 OA
HETATM    3  N           0      12.731 -15.315   4.226  0.00  0.00    -0.346 N 
HETATM    4  H           0      11.988 -14.660   4.016  0.00  0.00     0.163 HD
ENDROOT
BRANCH   3   5
HETATM    5  C           0      12.518 -16.368   5.218  0.00  0.00     0.176 C 
BRANCH   5   6
HETATM    6  C           0      12.736 -15.852   6.649  0.00  0.00     0.036 C 
BRANCH   6   7
HETATM    7  C           0      14.057 -16.375   7.226  0.00  0.00     0.023 C 
BRANCH   7   8
HETATM    8  C           0      14.994 -15.281   7.739  0.00  0.00     0.138 C 
BRANCH   8   9
HETATM    9  N           0      15.748 -14.779   6.593  0.00  0.00    -0.227 N 
HETATM   10  C           0      16.969 -14.253   6.612  0.00  0.00     0.665 C 
HETATM   11  N           0      17.640 -14.068   7.758  0.00  0.00    -0.235 N 
HETATM   12  N           0      17.522 -13.917   5.432  0.00  0.00    -0.235 N 
HETATM   13  H           0      18.613 -13.803   7.747  0.00  0.00     0.174 HD
HETATM   14  H           0      17.261 -14.390   8.634  0.00  0.00     0.174 HD
HETATM   15  H           0      18.321 -13.303   5.402  0.00  0.00     0.174 HD
HETATM   16  H           0      16.900 -13.964   4.622  0.00  0.00     0.174 HD
HETATM   17  H           0      15.315 -14.799   5.654  0.00  0.00     0.177 HD
ENDBRANCH   8   9
ENDBRANCH   7   8
ENDBRANCH   6   7
ENDBRANCH   5   6
BRANCH   5  18
HETATM   18  C           0      11.209 -17.173   5.058  0.00  0.00     0.243 C 
HETATM   19  N           0      11.176 -18.501   5.349  0.00  0.00    -0.337 N 
HETATM   20  C           0       9.889 -19.217   5.307  0.00  0.00     0.179 C 
HETATM   21  C           0      12.300 -19.459   5.283  0.00  0.00     0.127 C 
HETATM   22  C           0      10.261 -20.683   4.950  0.00  0.00     0.037 C 
HETATM   23  C           0      11.711 -20.600   4.448  0.00  0.00     0.022 C 
HETATM   24  O           0      10.197 -16.548   4.726  0.00  0.00    -0.271 OA
BRANCH  20  25
HETATM   25  C           0       9.079 -19.170   6.614  0.00  0.00     0.241 C 
HETATM   26  N           0       8.202 -18.148   6.782  0.00  0.00    -0.344 N 
HETATM   27  H           0       8.093 -17.451   6.050  0.00  0.00     0.163 HD
HETATM   28  O           0       9.264 -20.048   7.461  0.00  0.00    -0.271 OA
BRANCH  26  29
HETATM   29  C           0       7.530 -17.913   8.052  0.00  0.00     0.200 C 
BRANCH  29  30
HETATM   30  C           0       6.050 -17.492   7.960  0.00  0.00     0.242 C 
HETATM   31  N           0       5.657 -16.805   6.878  0.00  0.00    -0.354 N 
HETATM   32  H           0       6.278 -16.597   6.099  0.00  0.00     0.162 HD
HETATM   33  O           0       5.285 -17.798   8.887  0.00  0.00    -0.271 OA
BRANCH  31  34
HETATM   34  C           0       4.286 -16.392   6.646  0.00  0.00     0.203 C 
BRANCH  34  35
HETATM   35  C           0       4.074 -14.925   7.118  0.00  0.00     0.307 C 
HETATM   36  O           0       3.002 -14.371   6.753  0.00  0.00    -0.186 OA
HETATM   37  O           0       5.001 -14.451   7.817  0.00  0.00    -0.186 OA
ENDBRANCH  34  35
ENDBRANCH  31  34
ENDBRANCH  29  30
BRANCH  29  38
HETATM   38  C           0       8.302 -16.885   8.906  0.00  0.00     0.199 C 
BRANCH  38  39
HETATM   39  O           0       7.573 -15.690   9.119  0.00  0.00    -0.398 OA
HETATM   40  H           0       6.665 -15.903   9.393  0.00  0.00     0.209 HD
ENDBRANCH  38  39
ENDBRANCH  29  38
ENDBRANCH  26  29
ENDBRANCH  20  25
ENDBRANCH   5  18
ENDBRANCH   3   5
BRANCH   1  41
HETATM   41  C           0      14.164 -13.847   2.847  0.00  0.00     0.185 C 
BRANCH  41  42
HETATM   42  C           0      14.973 -14.107   1.561  0.00  0.00     0.137 C 
BRANCH  42  43
HETATM   43  C           0      16.482 -13.908   1.701  0.00  0.00     0.217 C 
HETATM   44  N           0      17.165 -15.041   1.971  0.00  0.00    -0.370 N 
HETATM   45  H           0      18.150 -14.950   2.176  0.00  0.00     0.159 HD
HETATM   46  H           0      16.701 -15.942   2.139  0.00  0.00     0.159 HD
HETATM   47  O           0      17.005 -12.794   1.607  0.00  0.00    -0.274 OA
ENDBRANCH  42  43
ENDBRANCH  41  42
BRANCH  41  48
HETATM   48  N           0      14.863 -12.810   3.596  0.00  0.00    -0.346 N 
HETATM   49  H           0      15.821 -12.603   3.347  0.00  0.00     0.163 HD
HETATM   50  C           0      14.337 -12.175   4.664  0.00  0.00     0.241 C 
HETATM   51  O           0      13.218 -12.433   5.124  0.00  0.00    -0.271 OA
BRANCH  50  52
HETATM   52  C           0      15.196 -11.060   5.293  0.00  0.00     0.177 C 
BRANCH  52  53
HETATM   53  N           0      15.850 -10.228   4.288  0.00  0.00    -0.346 N 
HETATM   54  H           0      15.281  -9.620   3.712  0.00  0.00     0.163 HD
HETATM   55  C           0      17.204 -10.152   4.189  0.00  0.00     0.236 C 
HETATM   56  O           0      17.966 -10.769   4.929  0.00  0.00    -0.272 OA
BRANCH  55  57
HETATM   57  C           0      17.761  -9.219   3.105  0.00  0.00     0.225 C 
BRANCH  57  58
HETATM   58  N           0      16.859  -8.133   2.726  0.00  0.00    -0.351 N 
HETATM   59  H           0      16.026  -8.383   2.212  0.00  0.00     0.163 HD
HETATM   60  C           0      17.001  -6.918   3.305  0.00  0.00     0.248 C 
HETATM   61  O           0      17.933  -6.677   4.080  0.00  0.00    -0.271 OA
BRANCH  60  62
HETATM   62  C           0      16.019  -5.784   2.987  0.00  0.00     0.275 C 
BRANCH  62  63
HETATM   63  N           0      15.013  -5.538   4.100  0.00  0.00    -0.066 N 
HETATM   64  H           0      14.046  -5.697   3.799  0.00  0.00     0.275 HD
HETATM   65  H           0      15.181  -6.100   4.940  0.00  0.00     0.275 HD
HETATM   66  H           0      15.069  -4.559   4.399  0.00  0.00     0.275 HD
ENDBRANCH  62  63
BRANCH  62  67
HETATM   67  C           0      16.677  -4.448   2.607  0.00  0.00     0.053 C 
BRANCH  67  68
HETATM   68  C           0      15.735  -3.449   1.924  0.00  0.00     0.115 C 
BRANCH  68  69
HETATM   69  C           0      15.210  -2.287   2.789  0.00  0.00     0.172 C 
HETATM   70  O           0      14.708  -1.283   2.218  0.00  0.00    -0.648 OA
HETATM   71  O           0      15.345  -2.425   4.048  0.00  0.00    -0.648 OA
ENDBRANCH  68  69
ENDBRANCH  67  68
ENDBRANCH  62  67
ENDBRANCH  60  62
ENDBRANCH  57  58
ENDBRANCH  55  57
ENDBRANCH  52  53
BRANCH  52  72
HETATM   72  C           0      14.362 -10.157   6.230  0.00  0.00     0.038 C 
BRANCH  72  73
HETATM   73  C           0      14.611 -10.303   7.744  0.00  0.00    -0.020 C 
HETATM   74  C           0      16.054 -10.716   8.066  0.00  0.00     0.009 C 
HETATM   75  C           0      14.251  -8.983   8.443  0.00  0.00     0.009 C 
ENDBRANCH  72  73
ENDBRANCH  52  72
ENDBRANCH  50  52
ENDBRANCH  41  48
ENDBRANCH   1  41
TORSDOF 28
ENDMDL
MODEL 8
REMARK VINA RESULT:      -4.3     12.546     18.112
REMARK  28 active torsions:
REMARK  status: ('A' for Active; 'I' for Inactive)
REMARK       I    between atoms: C_1  and  N_3 
REMARK    1  A    between atoms: C_1  and  C_41 
REMARK    2  A    between atoms: N_3  and  C_5 
REMARK    3  A    between atoms: C_5  and  C_6 
REMARK    4  A    between atoms: C_5  and  C_18 
REMARK       I    between atoms: C_18  and  N_19 
REMARK    5  A    between atoms: C_20  and  C_25 
REMARK       I    between atoms: C_25  and  N_26 
REMARK    6  A    between atoms: N_26  and  C_29 
REMARK    7  A    between atoms: C_29  and  C_30 
REMARK    8  A    between atoms: C_29  and  C_38 
REMARK       I    between atoms: C_30  and  N_31 
REMARK    9  A    between atoms: N_31  and  C_34 
REMARK   10  A    between atoms: C_34  and  C_35 
REMARK   11  A    between atoms: C_38  and  O_39 
REMARK   12  A    between atoms: C_6  and  C_7 
REMARK   13  A    between atoms: C_7  and  C_8 
REMARK   14  A    between atoms: C_8  and  N_9 
REMARK       I    between atoms: N_9  and  C_10 
REMARK       I    between atoms: C_10  and  N_12 
REMARK   15  A    between atoms: C_41  and  C_42 
REMARK   16  A    between atoms: C_41  and  N_48 
REMARK       I    between atoms: N_48  and  C_50 
REMARK   17  A    between atoms: C_50  and  C_52 
REMARK   18  A    between atoms: C_52  and  N_53 
REMARK   19  A    between atoms: C_52  and  C_72 
REMARK       I    between atoms: N_53  and  C_55 
REMARK   20  A    between atoms: C_55  and  C_57 
REMARK   21  A    between atoms: C_57  and  N_58 
REMARK       I    between atoms: N_58  and  C_60 
REMARK   22  A    between atoms: C_60  and  C_62 
REMARK   23  A    between atoms: C_62  and  N_63 
REMARK   24  A    between atoms: C_62  and  C_67 
REMARK   25  A    between atoms: C_67  and  C_68 
REMARK   26  A    between atoms: C_68  and  C_69 
REMARK   27  A    between atoms: C_72  and  C_73 
REMARK   28  A    between atoms: C_42  and  C_43 
REMARK       I    between atoms: C_43  and  N_44 
ROOT
HETATM    1  C           0      -5.919 -15.931   9.023  0.00  0.00     0.241 C 
HETATM    2  O           0      -4.724 -15.875   9.334  0.00  0.00    -0.271 OA
HETATM    3  N           0      -6.502 -17.090   8.638  0.00  0.00    -0.346 N 
HETATM    4  H           0      -7.475 -17.088   8.356  0.00  0.00     0.163 HD
ENDROOT
BRANCH   3   5
HETATM    5  C           0      -5.780 -18.355   8.762  0.00  0.00     0.176 C 
BRANCH   5   6
HETATM    6  C           0      -6.674 -19.464   9.341  0.00  0.00     0.036 C 
BRANCH   6   7
HETATM    7  C           0      -8.104 -19.357   8.799  0.00  0.00     0.023 C 
BRANCH   7   8
HETATM    8  C           0      -8.558 -20.568   7.985  0.00  0.00     0.138 C 
BRANCH   8   9
HETATM    9  N           0      -7.676 -20.671   6.825  0.00  0.00    -0.227 N 
HETATM   10  C           0      -8.043 -20.788   5.552  0.00  0.00     0.665 C 
HETATM   11  N           0      -9.331 -20.886   5.196  0.00  0.00    -0.235 N 
HETATM   12  N           0      -7.072 -20.794   4.621  0.00  0.00    -0.235 N 
HETATM   13  H           0      -9.602 -20.830   4.226  0.00  0.00     0.174 HD
HETATM   14  H           0     -10.064 -20.803   5.883  0.00  0.00     0.174 HD
HETATM   15  H           0      -7.266 -21.119   3.686  0.00  0.00     0.174 HD
HETATM   16  H           0      -6.115 -20.850   4.978  0.00  0.00     0.174 HD
HETATM   17  H           0      -6.651 -20.679   6.968  0.00  0.00     0.177 HD
ENDBRANCH   8   9
ENDBRANCH   7   8
ENDBRANCH   6   7
ENDBRANCH   5   6
BRANCH   5  18
HETATM   18  C           0      -5.003 -18.800   7.504  0.00  0.00     0.243 C 
HETATM   19  N           0      -3.896 -19.584   7.617  0.00  0.00    -0.337 N 
HETATM   20  C           0      -3.247 -20.095   6.398  0.00  0.00     0.179 C 
HETATM   21  C           0      -2.968 -19.658   8.766  0.00  0.00     0.127 C 
HETATM   22  C           0      -1.751 -20.265   6.786  0.00  0.00     0.037 C 
HETATM   23  C           0      -1.602 -19.476   8.096  0.00  0.00     0.022 C 
HETATM   24  O           0      -5.466 -18.473   6.407  0.00  0.00    -0.271 OA
BRANCH  20  25
HETATM   25  C           0      -3.818 -21.421   5.867  0.00  0.00     0.241 C 
HETATM   26  N           0      -3.199 -22.000   4.807  0.00  0.00    -0.344 N 
HETATM   27  H           0      -2.378 -21.559   4.399  0.00  0.00     0.163 HD
HETATM   28  O           0      -4.818 -21.898   6.409  0.00  0.00    -0.271 OA
BRANCH  26  29
HETATM   29  C           0      -3.768 -23.149   4.117  0.00  0.00     0.200 C 
BRANCH  29  30
HETATM   30  C           0      -2.762 -24.227   3.668  0.00  0.00     0.242 C 
HETATM   31  N           0      -2.923 -25.472   4.137  0.00  0.00    -0.354 N 
HETATM   32  H           0      -3.703 -25.743   4.731  0.00  0.00     0.162 HD
HETATM   33  O           0      -1.846 -23.902   2.898  0.00  0.00    -0.271 OA
BRANCH  31  34
HETATM   34  C           0      -2.077 -26.587   3.754  0.00  0.00     0.203 C 
BRANCH  34  35
HETATM   35  C           0      -2.937 -27.745   3.172  0.00  0.00     0.307 C 
HETATM   36  O           0      -4.125 -27.457   2.864  0.00  0.00    -0.186 OA
HETATM   37  O           0      -2.347 -28.848   3.071  0.00  0.00    -0.186 OA
ENDBRANCH  34  35
ENDBRANCH  31  34
ENDBRANCH  29  30
BRANCH  29  38
HETATM   38  C           0      -4.618 -22.705   2.908  0.00  0.00     0.199 C 
BRANCH  38  39
HETATM   39  O           0      -4.517 -23.594   1.811  0.00  0.00    -0.398 OA
HETATM   40  H           0      -4.306 -24.488   2.130  0.00  0.00     0.209 HD
ENDBRANCH  38  39
ENDBRANCH  29  38
ENDBRANCH  26  29
ENDBRANCH  20  25
ENDBRANCH   5  18
ENDBRANCH   3   5
BRANCH   1  41
HETATM   41  C           0      -6.825 -14.684   9.104  0.00  0.00     0.185 C 
BRANCH  41  42
HETATM   42  C           0      -8.290 -15.039   9.419  0.00  0.00     0.137 C 
BRANCH  42  43
HETATM   43  C           0      -9.239 -14.972   8.223  0.00  0.00     0.217 C 
HETATM   44  N           0     -10.218 -14.049   8.347  0.00  0.00    -0.370 N 
HETATM   45  H           0     -10.933 -14.034   7.633  0.00  0.00     0.159 HD
HETATM   46  H           0     -10.353 -13.495   9.201  0.00  0.00     0.159 HD
HETATM   47  O           0      -9.125 -15.728   7.255  0.00  0.00    -0.274 OA
ENDBRANCH  42  43
ENDBRANCH  41  42
BRANCH  41  48
HETATM   48  N           0      -6.822 -13.921   7.862  0.00  0.00    -0.346 N 
HETATM   49  H           0      -6.743 -14.427   6.989  0.00  0.00     0.163 HD
HETATM   50  C           0      -6.822 -12.573   7.811  0.00  0.00     0.241 C 
HETATM   51  O           0      -6.800 -11.856   8.820  0.00  0.00    -0.271 OA
BRANCH  50  52
HETATM   52  C           0      -6.882 -11.936   6.410  0.00  0.00     0.177 C 
BRANCH  52  53
HETATM   53  N           0      -8.207 -12.045   5.806  0.00  0.00    -0.346 N 
HETATM   54  H           0      -8.839 -11.257   5.871  0.00  0.00     0.163 HD
HETATM   55  C           0      -8.568 -13.119   5.054  0.00  0.00     0.236 C 
HETATM   56  O           0      -7.815 -14.064   4.830  0.00  0.00    -0.272 OA
BRANCH  55  57
HETATM   57  C           0      -9.982 -13.094   4.457  0.00  0.00     0.225 C 
BRANCH  57  58
HETATM   58  N           0     -10.998 -13.731   5.293  0.00  0.00    -0.351 N 
HETATM   59  H           0     -11.377 -13.185   6.054  0.00  0.00     0.163 HD
HETATM   60  C           0     -11.593 -14.869   4.866  0.00  0.00     0.248 C 
HETATM   61  O           0     -11.235 -15.434   3.828  0.00  0.00    -0.271 OA
BRANCH  60  62
HETATM   62  C           0     -12.719 -15.513   5.684  0.00  0.00     0.275 C 
BRANCH  62  63
HETATM   63  N           0     -13.712 -14.501   6.231  0.00  0.00    -0.066 N 
HETATM   64  H           0     -13.289 -13.580   6.388  0.00  0.00     0.275 HD
HETATM   65  H           0     -14.540 -14.374   5.640  0.00  0.00     0.275 HD
HETATM   66  H           0     -14.060 -14.822   7.140  0.00  0.00     0.275 HD
ENDBRANCH  62  63
BRANCH  62  67
HETATM   67  C           0     -13.491 -16.624   4.955  0.00  0.00     0.053 C 
BRANCH  67  68
HETATM   68  C           0     -13.170 -18.043   5.441  0.00  0.00     0.115 C 
BRANCH  68  69
HETATM   69  C           0     -11.712 -18.518   5.284  0.00  0.00     0.172 C 
HETATM   70  O           0     -10.954 -18.497   6.289  0.00  0.00    -0.648 OA
HETATM   71  O           0     -11.369 -18.886   4.114  0.00  0.00    -0.648 OA
ENDBRANCH  68  69
ENDBRANCH  67  68
ENDBRANCH  62  67
ENDBRANCH  60  62
ENDBRANCH  57  58
ENDBRANCH  55  57
ENDBRANCH  52  53
BRANCH  52  72
HETATM   72  C           0      -6.462 -10.449   6.439  0.00  0.00     0.038 C 
BRANCH  72  73
HETATM   73  C           0      -7.590  -9.403   6.356  0.00  0.00    -0.020 C 
HETATM   74  C           0      -8.167  -9.049   7.735  0.00  0.00     0.009 C 
HETATM   75  C           0      -7.062  -8.147   5.645  0.00  0.00     0.009 C 
ENDBRANCH  72  73
ENDBRANCH  52  72
ENDBRANCH  50  52
ENDBRANCH  41  48
ENDBRANCH   1  41
TORSDOF 28
ENDMDL
MODEL 9
REMARK VINA RESULT:      -4.3     15.656     22.049
REMARK  28 active torsions:
REMARK  status: ('A' for Active; 'I' for Inactive)
REMARK       I    between atoms: C_1  and  N_3 
REMARK    1  A    between atoms: C_1  and  C_41 
REMARK    2  A    between atoms: N_3  and  C_5 
REMARK    3  A    between atoms: C_5  and  C_6 
REMARK    4  A    between atoms: C_5  and  C_18 
REMARK       I    between atoms: C_18  and  N_19 
REMARK    5  A    between atoms: C_20  and  C_25 
REMARK       I    between atoms: C_25  and  N_26 
REMARK    6  A    between atoms: N_26  and  C_29 
REMARK    7  A    between atoms: C_29  and  C_30 
REMARK    8  A    between atoms: C_29  and  C_38 
REMARK       I    between atoms: C_30  and  N_31 
REMARK    9  A    between atoms: N_31  and  C_34 
REMARK   10  A    between atoms: C_34  and  C_35 
REMARK   11  A    between atoms: C_38  and  O_39 
REMARK   12  A    between atoms: C_6  and  C_7 
REMARK   13  A    between atoms: C_7  and  C_8 
REMARK   14  A    between atoms: C_8  and  N_9 
REMARK       I    between atoms: N_9  and  C_10 
REMARK       I    between atoms: C_10  and  N_12 
REMARK   15  A    between atoms: C_41  and  C_42 
REMARK   16  A    between atoms: C_41  and  N_48 
REMARK       I    between atoms: N_48  and  C_50 
REMARK   17  A    between atoms: C_50  and  C_52 
REMARK   18  A    between atoms: C_52  and  N_53 
REMARK   19  A    between atoms: C_52  and  C_72 
REMARK       I    between atoms: N_53  and  C_55 
REMARK   20  A    between atoms: C_55  and  C_57 
REMARK   21  A    between atoms: C_57  and  N_58 
REMARK       I    between atoms: N_58  and  C_60 
REMARK   22  A    between atoms: C_60  and  C_62 
REMARK   23  A    between atoms: C_62  and  N_63 
REMARK   24  A    between atoms: C_62  and  C_67 
REMARK   25  A    between atoms: C_67  and  C_68 
REMARK   26  A    between atoms: C_68  and  C_69 
REMARK   27  A    between atoms: C_72  and  C_73 
REMARK   28  A    between atoms: C_42  and  C_43 
REMARK       I    between atoms: C_43  and  N_44 
ROOT
HETATM    1  C           0      -7.915  -6.702   8.526  0.00  0.00     0.241 C 
HETATM    2  O           0      -8.675  -6.993   9.456  0.00  0.00    -0.271 OA
HETATM    3  N           0      -7.567  -7.606   7.580  0.00  0.00    -0.346 N 
HETATM    4  H           0      -6.914  -7.338   6.853  0.00  0.00     0.163 HD
ENDROOT
BRANCH   3   5
HETATM    5  C           0      -8.232  -8.906   7.523  0.00  0.00     0.176 C 
BRANCH   5   6
HETATM    6  C           0      -9.398  -8.903   6.520  0.00  0.00     0.036 C 
BRANCH   6   7
HETATM    7  C           0     -10.732  -8.643   7.229  0.00  0.00     0.023 C 
BRANCH   7   8
HETATM    8  C           0     -11.408  -7.332   6.830  0.00  0.00     0.138 C 
BRANCH   8   9
HETATM    9  N           0     -10.806  -6.893   5.574  0.00  0.00    -0.227 N 
HETATM   10  C           0     -11.427  -6.312   4.552  0.00  0.00     0.665 C 
HETATM   11  N           0     -12.753  -6.114   4.553  0.00  0.00    -0.235 N 
HETATM   12  N           0     -10.675  -5.913   3.510  0.00  0.00    -0.235 N 
HETATM   13  H           0     -13.188  -5.548   3.841  0.00  0.00     0.174 HD
HETATM   14  H           0     -13.307  -6.340   5.363  0.00  0.00     0.174 HD
HETATM   15  H           0     -11.107  -5.696   2.625  0.00  0.00     0.174 HD
HETATM   16  H           0      -9.698  -6.217   3.526  0.00  0.00     0.174 HD
HETATM   17  H           0      -9.796  -7.051   5.415  0.00  0.00     0.177 HD
ENDBRANCH   8   9
ENDBRANCH   7   8
ENDBRANCH   6   7
ENDBRANCH   5   6
BRANCH   5  18
HETATM   18  C           0      -7.295 -10.122   7.357  0.00  0.00     0.243 C 
HETATM   19  N           0      -6.512 -10.536   8.391  0.00  0.00    -0.337 N 
HETATM   20  C           0      -5.721 -11.770   8.248  0.00  0.00     0.179 C 
HETATM   21  C           0      -5.982  -9.709   9.496  0.00  0.00     0.127 C 
HETATM   22  C           0      -4.488 -11.561   9.170  0.00  0.00     0.037 C 
HETATM   23  C           0      -4.490 -10.055   9.479  0.00  0.00     0.022 C 
HETATM   24  O           0      -7.341 -10.731   6.285  0.00  0.00    -0.271 OA
BRANCH  20  25
HETATM   25  C           0      -6.464 -13.063   8.628  0.00  0.00     0.241 C 
HETATM   26  N           0      -7.301 -13.608   7.709  0.00  0.00    -0.344 N 
HETATM   27  H           0      -7.412 -13.164   6.801  0.00  0.00     0.163 HD
HETATM   28  O           0      -6.284 -13.545   9.749  0.00  0.00    -0.271 OA
BRANCH  26  29
HETATM   29  C           0      -8.185 -14.717   8.037  0.00  0.00     0.200 C 
BRANCH  29  30
HETATM   30  C           0      -7.637 -16.125   7.729  0.00  0.00     0.242 C 
HETATM   31  N           0      -7.953 -17.121   8.568  0.00  0.00    -0.354 N 
HETATM   32  H           0      -8.574 -16.998   9.364  0.00  0.00     0.162 HD
HETATM   33  O           0      -6.925 -16.279   6.724  0.00  0.00    -0.271 OA
BRANCH  31  34
HETATM   34  C           0      -7.543 -18.498   8.366  0.00  0.00     0.203 C 
BRANCH  34  35
HETATM   35  C           0      -8.677 -19.305   7.672  0.00  0.00     0.307 C 
HETATM   36  O           0      -8.773 -19.171   6.422  0.00  0.00    -0.186 OA
HETATM   37  O           0      -9.378 -20.008   8.440  0.00  0.00    -0.186 OA
ENDBRANCH  34  35
ENDBRANCH  31  34
ENDBRANCH  29  30
BRANCH  29  38
HETATM   38  C           0      -9.564 -14.546   7.365  0.00  0.00     0.199 C 
BRANCH  38  39
HETATM   39  O           0     -10.024 -15.733   6.747  0.00  0.00    -0.398 OA
HETATM   40  H           0      -9.894 -16.488   7.346  0.00  0.00     0.209 HD
ENDBRANCH  38  39
ENDBRANCH  29  38
ENDBRANCH  26  29
ENDBRANCH  20  25
ENDBRANCH   5  18
ENDBRANCH   3   5
BRANCH   1  41
HETATM   41  C           0      -7.360  -5.271   8.366  0.00  0.00     0.185 C 
BRANCH  41  42
HETATM   42  C           0      -7.156  -4.563   9.719  0.00  0.00     0.137 C 
BRANCH  42  43
HETATM   43  C           0      -8.021  -3.320   9.930  0.00  0.00     0.217 C 
HETATM   44  N           0      -7.318  -2.173  10.048  0.00  0.00    -0.370 N 
HETATM   45  H           0      -7.833  -1.338  10.292  0.00  0.00     0.159 HD
HETATM   46  H           0      -6.291  -2.150  10.065  0.00  0.00     0.159 HD
HETATM   47  O           0      -9.249  -3.387  10.020  0.00  0.00    -0.274 OA
ENDBRANCH  42  43
ENDBRANCH  41  42
BRANCH  41  48
HETATM   48  N           0      -8.237  -4.427   7.563  0.00  0.00    -0.346 N 
HETATM   49  H           0      -8.916  -3.851   8.043  0.00  0.00     0.163 HD
HETATM   50  C           0      -8.261  -4.441   6.215  0.00  0.00     0.241 C 
HETATM   51  O           0      -7.555  -5.192   5.531  0.00  0.00    -0.271 OA
BRANCH  50  52
HETATM   52  C           0      -9.208  -3.435   5.533  0.00  0.00     0.177 C 
BRANCH  52  53
HETATM   53  N           0     -10.331  -3.060   6.388  0.00  0.00    -0.346 N 
HETATM   54  H           0     -10.150  -2.828   7.356  0.00  0.00     0.163 HD
HETATM   55  C           0     -11.586  -2.894   5.893  0.00  0.00     0.236 C 
HETATM   56  O           0     -11.864  -3.043   4.706  0.00  0.00    -0.272 OA
BRANCH  55  57
HETATM   57  C           0     -12.669  -2.474   6.898  0.00  0.00     0.225 C 
BRANCH  57  58
HETATM   58  N           0     -13.125  -1.094   6.747  0.00  0.00    -0.351 N 
HETATM   59  H           0     -12.479  -0.363   7.008  0.00  0.00     0.163 HD
HETATM   60  C           0     -14.234  -0.836   6.015  0.00  0.00     0.248 C 
HETATM   61  O           0     -14.923  -1.747   5.545  0.00  0.00    -0.271 OA
BRANCH  60  62
HETATM   62  C           0     -14.689   0.608   5.773  0.00  0.00     0.275 C 
BRANCH  62  63
HETATM   63  N           0     -16.199   0.774   5.827  0.00  0.00    -0.066 N 
HETATM   64  H           0     -16.608   0.372   6.677  0.00  0.00     0.275 HD
HETATM   65  H           0     -16.511   1.747   5.754  0.00  0.00     0.275 HD
HETATM   66  H           0     -16.624   0.280   5.036  0.00  0.00     0.275 HD
ENDBRANCH  62  63
BRANCH  62  67
HETATM   67  C           0     -14.040   1.652   6.696  0.00  0.00     0.053 C 
BRANCH  67  68
HETATM   68  C           0     -12.917   2.466   6.042  0.00  0.00     0.115 C 
BRANCH  68  69
HETATM   69  C           0     -11.491   2.243   6.584  0.00  0.00     0.172 C 
HETATM   70  O           0     -10.933   3.172   7.224  0.00  0.00    -0.648 OA
HETATM   71  O           0     -10.965   1.115   6.318  0.00  0.00    -0.648 OA
ENDBRANCH  68  69
ENDBRANCH  67  68
ENDBRANCH  62  67
ENDBRANCH  60  62
ENDBRANCH  57  58
ENDBRANCH  55  57
ENDBRANCH  52  53
BRANCH  52  72
HETATM   72  C           0      -8.461  -2.155   5.092  0.00  0.00     0.038 C 
BRANCH  72  73
HETATM   73  C           0      -7.711  -2.213   3.748  0.00  0.00    -0.020 C 
HETATM   74  C           0      -8.370  -1.344   2.667  0.00  0.00     0.009 C 
HETATM   75  C           0      -6.248  -1.796   3.969  0.00  0.00     0.009 C 
ENDBRANCH  72  73
ENDBRANCH  52  72
ENDBRANCH  50  52
ENDBRANCH  41  48
ENDBRANCH   1  41
TORSDOF 28
ENDMDL
