MODEL 1
REMARK VINA RESULT:      -5.3      0.000      0.000
REMARK WARNING: 32 MAX_TORS EXCEEDED!!!
REMARK  38 active torsions:
REMARK  status: ('A' for Active; 'I' for Inactive)
REMARK    1  A    between atoms: N_1  and  CA_2 
REMARK    2  A    between atoms: CA_2  and  CB_5 
REMARK    3  A    between atoms: CA_2  and  C_3 
REMARK       I    between atoms: C_3  and  N_17 
REMARK    4  A    between atoms: CB_5  and  CG_6 
REMARK    5  A    between atoms: CZ_10  and  OH_11 
REMARK    6  A    between atoms: N_17  and  CA_18 
REMARK    7  A    between atoms: CA_18  and  CB_21 
REMARK    8  A    between atoms: CA_18  and  C_19 
REMARK       I    between atoms: C_19  and  N_26 
REMARK    9  A    between atoms: CB_21  and  CG_22 
REMARK   10  A    between atoms: CA_27  and  C_28 
REMARK       I    between atoms: C_28  and  N_33 
REMARK   11  A    between atoms: N_33  and  CA_34 
REMARK   12  A    between atoms: CA_34  and  C_35 
REMARK   13  A    between atoms: CA_34  and  CB_37 
REMARK       I    between atoms: C_35  and  N_43 
REMARK   14  A    between atoms: CB_37  and  CG_38 
REMARK   15  A    between atoms: CG_38  and  CD_39 
REMARK   16  A    between atoms: N_43  and  CA_44 
REMARK   17  A    between atoms: CA_44  and  CB_47 
REMARK   18  A    between atoms: CA_44  and  C_45 
REMARK       I    between atoms: C_45  and  N_57 
REMARK   19  A    between atoms: CB_47  and  CG_48 
REMARK   20  A    between atoms: CZ_52  and  OH_53 
REMARK   21  A    between atoms: N_57  and  CA_58 
REMARK   22  A    between atoms: CA_58  and  CB_61 
REMARK   23  A    between atoms: CA_58  and  C_59 
REMARK       I    between atoms: C_59  and  N_74 
REMARK   24  A    between atoms: CB_61  and  CG_62 
REMARK   25  A    between atoms: CG_62  and  CD_63 
REMARK   26  A    between atoms: CD_63  and  NE_64 
REMARK       I    between atoms: NE_64  and  CZ_65 
REMARK       I    between atoms: CZ_65  and  NH2_66 
REMARK   27  A    between atoms: N_74  and  CA_75 
REMARK   28  A    between atoms: CA_75  and  CB_78 
REMARK   29  A    between atoms: CA_75  and  C_76 
REMARK       I    between atoms: C_76  and  N_85 
REMARK   30  A    between atoms: CB_78  and  CG_79 
REMARK       I    between atoms: CG_79  and  ND2_80 
REMARK   31  A    between atoms: N_85  and  CA_86 
REMARK   32  A    between atoms: CA_86  and  CB_89 
REMARK   33  A    between atoms: CA_86  and  C_87 
REMARK       I    between atoms: C_87  and  N_97 
REMARK   34  A    between atoms: CB_89  and  CG_90 
REMARK   35  A    between atoms: N_97  and  CA_98 
REMARK   36  A    between atoms: CA_98  and  C_99 
REMARK   37  A    between atoms: CA_98  and  CB_102 
REMARK   38  A    between atoms: CB_102  and  CG_103 
ROOT
ATOM      1  C   TYR A   5      -5.730 -20.000   3.898  1.00  0.00     0.241 C 
ATOM      2  O   TYR A   5      -4.704 -19.598   3.355  1.00  0.00    -0.271 OA
ATOM      3  N   ARG A   6      -6.344 -19.278   4.853  1.00  0.00    -0.346 N 
ATOM      4  H   ARG A   6      -7.199 -19.659   5.250  1.00  0.00     0.163 HD
ENDROOT
BRANCH   3   5
ATOM      5  CA  ARG A   6      -5.882 -17.947   5.304  1.00  0.00     0.176 C 
BRANCH   5   6
ATOM      6  CB  ARG A   6      -7.112 -17.078   5.636  1.00  0.00     0.036 C 
BRANCH   6   7
ATOM      7  CG  ARG A   6      -7.218 -15.811   4.755  1.00  0.00     0.023 C 
BRANCH   7   8
ATOM      8  CD  ARG A   6      -6.756 -14.530   5.468  1.00  0.00     0.138 C 
BRANCH   8   9
ATOM      9  NE  ARG A   6      -5.863 -14.822   6.611  1.00  0.00    -0.227 N 
ATOM     10  HE  ARG A   6      -5.862 -15.774   6.931  1.00  0.00     0.177 HD
ATOM     11  CZ  ARG A   6      -4.990 -14.011   7.188  1.00  0.00     0.665 C 
ATOM     12  NH2 ARG A   6      -4.195 -14.476   8.100  1.00  0.00    -0.235 N 
ATOM     13  NH1 ARG A   6      -4.864 -12.750   6.884  1.00  0.00    -0.235 N 
ATOM     14 1HH2 ARG A   6      -4.072 -15.470   8.143  1.00  0.00     0.174 HD
ATOM     15 2HH2 ARG A   6      -3.356 -13.950   8.281  1.00  0.00     0.174 HD
ATOM     16 1HH1 ARG A   6      -5.299 -12.411   6.045  1.00  0.00     0.174 HD
ATOM     17 2HH1 ARG A   6      -4.145 -12.201   7.318  1.00  0.00     0.174 HD
ENDBRANCH   8   9
ENDBRANCH   7   8
ENDBRANCH   6   7
ENDBRANCH   5   6
BRANCH   5  18
ATOM     18  C   ARG A   6      -4.894 -17.996   6.492  1.00  0.00     0.241 C 
ATOM     19  N   ASN A   7      -5.169 -18.767   7.553  1.00  0.00    -0.346 N 
ATOM     20  H   ASN A   7      -5.968 -19.387   7.505  1.00  0.00     0.163 HD
ATOM     21  O   ARG A   6      -3.938 -17.231   6.492  1.00  0.00    -0.271 OA
BRANCH  19  22
ATOM     22  CA  ASN A   7      -4.218 -18.929   8.670  1.00  0.00     0.185 C 
BRANCH  22  23
ATOM     23  CB  ASN A   7      -4.886 -18.598  10.018  1.00  0.00     0.137 C 
BRANCH  23  24
ATOM     24  CG  ASN A   7      -5.277 -17.158  10.285  1.00  0.00     0.217 C 
ATOM     25  ND2 ASN A   7      -4.614 -16.573  11.259  1.00  0.00    -0.370 N 
ATOM     26 2HD2 ASN A   7      -4.060 -17.137  11.900  1.00  0.00     0.159 HD
ATOM     27 1HD2 ASN A   7      -4.788 -15.605  11.424  1.00  0.00     0.159 HD
ATOM     28  OD1 ASN A   7      -5.955 -16.483   9.516  1.00  0.00    -0.274 OA
ENDBRANCH  23  24
ENDBRANCH  22  23
BRANCH  22  29
ATOM     29  C   ASN A   7      -3.613 -20.348   8.763  1.00  0.00     0.241 C 
ATOM     30  N   PHE A   8      -3.059 -20.716   9.927  1.00  0.00    -0.346 N 
ATOM     31  H   PHE A   8      -3.011 -20.030  10.673  1.00  0.00     0.163 HD
ATOM     32  O   ASN A   7      -3.536 -21.035   7.745  1.00  0.00    -0.271 OA
BRANCH  30  33
ATOM     33  CA  PHE A   8      -2.533 -22.062  10.205  1.00  0.00     0.180 C 
BRANCH  33  34
ATOM     34  CB  PHE A   8      -3.362 -23.062   9.371  1.00  0.00     0.073 C 
BRANCH  34  35
ATOM     35  CG  PHE A   8      -3.996 -24.184  10.175  1.00  0.00    -0.056 A 
ATOM     36  CD1 PHE A   8      -3.319 -25.407  10.341  1.00  0.00     0.007 A 
ATOM     37  CE1 PHE A   8      -3.963 -26.488  10.971  1.00  0.00     0.001 A 
ATOM     38  CZ  PHE A   8      -5.281 -26.347  11.438  1.00  0.00     0.000 A 
ATOM     39  CE2 PHE A   8      -5.946 -25.116  11.303  1.00  0.00     0.001 A 
ATOM     40  CD2 PHE A   8      -5.302 -24.034  10.679  1.00  0.00     0.007 A 
ENDBRANCH  34  35
ENDBRANCH  33  34
BRANCH  33  41
ATOM     41  C   PHE A   8      -1.012 -22.186   9.939  1.00  0.00     0.241 C 
ATOM     42  N   TRP A   9      -0.284 -21.063  10.040  1.00  0.00    -0.344 N 
ATOM     43  H   TRP A   9      -0.773 -20.220  10.298  1.00  0.00     0.163 HD
ATOM     44  O   PHE A   8      -0.541 -23.275   9.603  1.00  0.00    -0.271 OA
BRANCH  42  45
ATOM     45  CA  TRP A   9       1.155 -20.912   9.762  1.00  0.00     0.190 C 
BRANCH  45  46
ATOM     46  C   TRP A   9       2.065 -20.905  11.009  1.00  0.00     0.197 C 
ATOM     47  OXT TRP A   9       2.626 -19.817  11.300  1.00  0.00    -0.646 OA
ATOM     48  O   TRP A   9       2.475 -22.019  11.400  1.00  0.00    -0.646 OA
ENDBRANCH  45  46
BRANCH  45  49
ATOM     49  CB  TRP A   9       1.330 -19.623   8.943  1.00  0.00     0.077 C 
BRANCH  49  50
ATOM     50  CG  TRP A   9       0.237 -19.377   7.954  1.00  0.00    -0.028 A 
ATOM     51  CD1 TRP A   9      -0.367 -18.184   7.785  1.00  0.00     0.096 A 
ATOM     52  NE1 TRP A   9      -1.211 -18.233   6.695  1.00  0.00    -0.365 N 
ATOM     53  HE1 TRP A   9      -1.598 -17.402   6.284  1.00  0.00     0.165 HD
ATOM     54  CE2 TRP A   9      -1.139 -19.455   6.065  1.00  0.00     0.042 A 
ATOM     55  CD2 TRP A   9      -0.220 -20.214   6.848  1.00  0.00    -0.002 A 
ATOM     56  CZ2 TRP A   9      -1.716 -19.948   4.887  1.00  0.00     0.030 A 
ATOM     57  CE3 TRP A   9       0.104 -21.507   6.378  1.00  0.00     0.014 A 
ATOM     58  CZ3 TRP A   9      -0.455 -22.007   5.185  1.00  0.00     0.001 A 
ATOM     59  CH2 TRP A   9      -1.364 -21.232   4.440  1.00  0.00     0.002 A 
ENDBRANCH  49  50
ENDBRANCH  45  49
ENDBRANCH  42  45
ENDBRANCH  33  41
ENDBRANCH  30  33
ENDBRANCH  22  29
ENDBRANCH  19  22
ENDBRANCH   5  18
ENDBRANCH   3   5
BRANCH   1  60
ATOM     60  CA  TYR A   5      -6.151 -21.466   3.693  1.00  0.00     0.180 C 
BRANCH  60  61
ATOM     61  N   TYR A   5      -7.407 -21.784   4.380  1.00  0.00    -0.346 N 
ATOM     62  H   TYR A   5      -7.948 -21.024   4.768  1.00  0.00     0.163 HD
ATOM     63  C   GLU A   4      -7.809 -23.045   4.606  1.00  0.00     0.241 C 
ATOM     64  O   GLU A   4      -7.090 -23.998   4.319  1.00  0.00    -0.271 OA
BRANCH  63  65
ATOM     65  CA  GLU A   4      -9.027 -23.250   5.519  1.00  0.00     0.177 C 
BRANCH  65  66
ATOM     66  N   GLU A   4      -8.887 -24.473   6.329  1.00  0.00    -0.346 N 
ATOM     67  H   GLU A   4      -7.954 -24.706   6.641  1.00  0.00     0.163 HD
ATOM     68  C   PRO A   3      -9.813 -25.431   6.438  1.00  0.00     0.241 C 
ATOM     69  O   PRO A   3     -10.911 -25.355   5.912  1.00  0.00    -0.271 OA
BRANCH  68  70
ATOM     70  CA  PRO A   3      -9.486 -26.667   7.287  1.00  0.00     0.179 C 
ATOM     71  N   PRO A   3      -8.059 -27.045   7.377  1.00  0.00    -0.337 N 
ATOM     72  CD  PRO A   3      -7.695 -27.181   8.785  1.00  0.00     0.127 C 
ATOM     73  C   ASP A   2      -7.329 -27.439   6.300  1.00  0.00     0.243 C 
ATOM     74  CG  PRO A   3      -9.016 -27.356   9.532  1.00  0.00     0.022 C 
ATOM     75  CB  PRO A   3      -9.958 -26.462   8.734  1.00  0.00     0.037 C 
ATOM     76  O   ASP A   2      -7.814 -27.274   5.177  1.00  0.00    -0.271 OA
BRANCH  73  77
ATOM     77  CA  ASP A   2      -5.774 -27.634   6.375  1.00  0.00     0.186 C 
BRANCH  77  78
ATOM     78  CB  ASP A   2      -5.034 -26.619   7.262  1.00  0.00     0.147 C 
BRANCH  78  79
ATOM     79  CG  ASP A   2      -5.043 -25.233   6.640  1.00  0.00     0.175 C 
ATOM     80  OD2 ASP A   2      -5.818 -24.417   7.192  1.00  0.00    -0.648 OA
ATOM     81  OD1 ASP A   2      -4.087 -24.959   5.904  1.00  0.00    -0.648 OA
ENDBRANCH  78  79
ENDBRANCH  77  78
BRANCH  77  82
ATOM     82  N   ASP A   2      -5.033 -27.722   5.091  1.00  0.00    -0.345 N 
ATOM     83  H   ASP A   2      -4.729 -26.828   4.738  1.00  0.00     0.163 HD
ATOM     84  C   TYR A   1      -4.452 -28.847   4.639  1.00  0.00     0.249 C 
ATOM     85  O   TYR A   1      -4.691 -29.931   5.116  1.00  0.00    -0.271 OA
BRANCH  84  86
ATOM     86  CA  TYR A   1      -3.753 -28.876   3.296  1.00  0.00     0.278 C 
BRANCH  86  87
ATOM     87  N   TYR A   1      -4.105 -27.703   2.480  1.00  0.00    -0.066 N 
ATOM     88  H2  TYR A   1      -3.827 -27.847   1.520  1.00  0.00     0.275 HD
ATOM     89  H1  TYR A   1      -3.631 -26.890   2.850  1.00  0.00     0.275 HD
ATOM     90  H3  TYR A   1      -5.107 -27.555   2.520  1.00  0.00     0.275 HD
ENDBRANCH  86  87
BRANCH  86  91
ATOM     91  CB  TYR A   1      -2.248 -29.138   3.355  1.00  0.00     0.081 C 
BRANCH  91  92
ATOM     92  CG  TYR A   1      -1.440 -27.857   3.253  1.00  0.00    -0.056 A 
ATOM     93  CD2 TYR A   1      -1.479 -26.928   4.318  1.00  0.00     0.010 A 
ATOM     94  CE2 TYR A   1      -0.759 -25.724   4.228  1.00  0.00     0.037 A 
ATOM     95  CZ  TYR A   1       0.012 -25.447   3.077  1.00  0.00     0.065 A 
ATOM     96  CE1 TYR A   1       0.080 -26.387   2.031  1.00  0.00     0.037 A 
ATOM     97  CD1 TYR A   1      -0.643 -27.598   2.113  1.00  0.00     0.010 A 
BRANCH  95  98
ATOM     98  OH  TYR A   1       0.694 -24.282   2.974  1.00  0.00    -0.361 OA
ATOM     99  HH  TYR A   1       0.105 -23.536   2.857  1.00  0.00     0.217 HD
ENDBRANCH  95  98
ENDBRANCH  91  92
ENDBRANCH  86  91
ENDBRANCH  84  86
ENDBRANCH  77  82
ENDBRANCH  73  77
ENDBRANCH  68  70
ENDBRANCH  65  66
BRANCH  65 100
ATOM    100  CB  GLU A   4      -9.224 -22.041   6.460  1.00  0.00     0.045 C 
BRANCH 100 101
ATOM    101  CG  GLU A   4      -8.758 -22.248   7.910  1.00  0.00     0.116 C 
BRANCH 101 102
ATOM    102  CD  GLU A   4      -7.411 -21.556   8.180  1.00  0.00     0.172 C 
ATOM    103  OE2 GLU A   4      -7.142 -21.329   9.381  1.00  0.00    -0.648 OA
ATOM    104  OE1 GLU A   4      -6.867 -20.971   7.210  1.00  0.00    -0.648 OA
ENDBRANCH 101 102
ENDBRANCH 100 101
ENDBRANCH  65 100
ENDBRANCH  63  65
ENDBRANCH  60  61
BRANCH  60 105
ATOM    105  CB  TYR A   5      -6.245 -21.828   2.198  1.00  0.00     0.073 C 
BRANCH 105 106
ATOM    106  CG  TYR A   5      -4.988 -22.413   1.563  1.00  0.00    -0.056 A 
ATOM    107  CD1 TYR A   5      -3.962 -22.963   2.368  1.00  0.00     0.010 A 
ATOM    108  CE1 TYR A   5      -2.877 -23.643   1.762  1.00  0.00     0.037 A 
ATOM    109  CZ  TYR A   5      -2.815 -23.760   0.361  1.00  0.00     0.065 A 
ATOM    110  CE2 TYR A   5      -3.822 -23.185  -0.444  1.00  0.00     0.037 A 
ATOM    111  CD2 TYR A   5      -4.909 -22.521   0.156  1.00  0.00     0.010 A 
BRANCH 109 112
ATOM    112  OH  TYR A   5      -1.795 -24.433  -0.218  1.00  0.00    -0.361 OA
ATOM    113  HH  TYR A   5      -1.667 -25.270   0.233  1.00  0.00     0.217 HD
ENDBRANCH 109 112
ENDBRANCH 105 106
ENDBRANCH  60 105
ENDBRANCH   1  60
TORSDOF 38
ENDMDL
MODEL 2
REMARK VINA RESULT:      -5.2      2.867      8.694
REMARK WARNING: 32 MAX_TORS EXCEEDED!!!
REMARK  38 active torsions:
REMARK  status: ('A' for Active; 'I' for Inactive)
REMARK    1  A    between atoms: N_1  and  CA_2 
REMARK    2  A    between atoms: CA_2  and  CB_5 
REMARK    3  A    between atoms: CA_2  and  C_3 
REMARK       I    between atoms: C_3  and  N_17 
REMARK    4  A    between atoms: CB_5  and  CG_6 
REMARK    5  A    between atoms: CZ_10  and  OH_11 
REMARK    6  A    between atoms: N_17  and  CA_18 
REMARK    7  A    between atoms: CA_18  and  CB_21 
REMARK    8  A    between atoms: CA_18  and  C_19 
REMARK       I    between atoms: C_19  and  N_26 
REMARK    9  A    between atoms: CB_21  and  CG_22 
REMARK   10  A    between atoms: CA_27  and  C_28 
REMARK       I    between atoms: C_28  and  N_33 
REMARK   11  A    between atoms: N_33  and  CA_34 
REMARK   12  A    between atoms: CA_34  and  C_35 
REMARK   13  A    between atoms: CA_34  and  CB_37 
REMARK       I    between atoms: C_35  and  N_43 
REMARK   14  A    between atoms: CB_37  and  CG_38 
REMARK   15  A    between atoms: CG_38  and  CD_39 
REMARK   16  A    between atoms: N_43  and  CA_44 
REMARK   17  A    between atoms: CA_44  and  CB_47 
REMARK   18  A    between atoms: CA_44  and  C_45 
REMARK       I    between atoms: C_45  and  N_57 
REMARK   19  A    between atoms: CB_47  and  CG_48 
REMARK   20  A    between atoms: CZ_52  and  OH_53 
REMARK   21  A    between atoms: N_57  and  CA_58 
REMARK   22  A    between atoms: CA_58  and  CB_61 
REMARK   23  A    between atoms: CA_58  and  C_59 
REMARK       I    between atoms: C_59  and  N_74 
REMARK   24  A    between atoms: CB_61  and  CG_62 
REMARK   25  A    between atoms: CG_62  and  CD_63 
REMARK   26  A    between atoms: CD_63  and  NE_64 
REMARK       I    between atoms: NE_64  and  CZ_65 
REMARK       I    between atoms: CZ_65  and  NH2_66 
REMARK   27  A    between atoms: N_74  and  CA_75 
REMARK   28  A    between atoms: CA_75  and  CB_78 
REMARK   29  A    between atoms: CA_75  and  C_76 
REMARK       I    between atoms: C_76  and  N_85 
REMARK   30  A    between atoms: CB_78  and  CG_79 
REMARK       I    between atoms: CG_79  and  ND2_80 
REMARK   31  A    between atoms: N_85  and  CA_86 
REMARK   32  A    between atoms: CA_86  and  CB_89 
REMARK   33  A    between atoms: CA_86  and  C_87 
REMARK       I    between atoms: C_87  and  N_97 
REMARK   34  A    between atoms: CB_89  and  CG_90 
REMARK   35  A    between atoms: N_97  and  CA_98 
REMARK   36  A    between atoms: CA_98  and  C_99 
REMARK   37  A    between atoms: CA_98  and  CB_102 
REMARK   38  A    between atoms: CB_102  and  CG_103 
ROOT
ATOM      1  C   TYR A   5      -5.041 -21.678   2.034  1.00  0.00     0.241 C 
ATOM      2  O   TYR A   5      -4.682 -20.537   2.313  1.00  0.00    -0.271 OA
ATOM      3  N   ARG A   6      -5.870 -22.366   2.839  1.00  0.00    -0.346 N 
ATOM      4  H   ARG A   6      -6.143 -23.299   2.542  1.00  0.00     0.163 HD
ENDROOT
BRANCH   3   5
ATOM      5  CA  ARG A   6      -6.450 -21.819   4.086  1.00  0.00     0.176 C 
BRANCH   5   6
ATOM      6  CB  ARG A   6      -7.773 -22.554   4.385  1.00  0.00     0.036 C 
BRANCH   6   7
ATOM      7  CG  ARG A   6      -8.084 -23.683   3.375  1.00  0.00     0.023 C 
BRANCH   7   8
ATOM      8  CD  ARG A   6      -9.432 -24.377   3.629  1.00  0.00     0.138 C 
BRANCH   8   9
ATOM      9  NE  ARG A   6      -9.478 -25.733   3.039  1.00  0.00    -0.227 N 
ATOM     10  HE  ARG A   6      -8.658 -26.015   2.533  1.00  0.00     0.177 HD
ATOM     11  CZ  ARG A   6     -10.418 -26.652   3.190  1.00  0.00     0.665 C 
ATOM     12  NH2 ARG A   6     -10.233 -27.839   2.701  1.00  0.00    -0.235 N 
ATOM     13  NH1 ARG A   6     -11.539 -26.445   3.822  1.00  0.00    -0.235 N 
ATOM     14 1HH2 ARG A   6      -9.293 -28.104   2.476  1.00  0.00     0.174 HD
ATOM     15 2HH2 ARG A   6     -10.786 -28.582   3.095  1.00  0.00     0.174 HD
ATOM     16 1HH1 ARG A   6     -11.624 -25.623   4.394  1.00  0.00     0.174 HD
ATOM     17 2HH1 ARG A   6     -12.188 -27.199   3.951  1.00  0.00     0.174 HD
ENDBRANCH   8   9
ENDBRANCH   7   8
ENDBRANCH   6   7
ENDBRANCH   5   6
BRANCH   5  18
ATOM     18  C   ARG A   6      -5.493 -21.871   5.298  1.00  0.00     0.241 C 
ATOM     19  N   ASN A   7      -4.222 -21.470   5.158  1.00  0.00    -0.346 N 
ATOM     20  H   ASN A   7      -3.945 -21.037   4.286  1.00  0.00     0.163 HD
ATOM     21  O   ARG A   6      -5.885 -22.397   6.332  1.00  0.00    -0.271 OA
BRANCH  19  22
ATOM     22  CA  ASN A   7      -3.292 -21.405   6.302  1.00  0.00     0.185 C 
BRANCH  22  23
ATOM     23  CB  ASN A   7      -1.829 -21.342   5.823  1.00  0.00     0.137 C 
BRANCH  23  24
ATOM     24  CG  ASN A   7      -1.558 -20.827   4.424  1.00  0.00     0.217 C 
ATOM     25  ND2 ASN A   7      -1.046 -21.710   3.595  1.00  0.00    -0.370 N 
ATOM     26 2HD2 ASN A   7      -0.668 -22.582   3.960  1.00  0.00     0.159 HD
ATOM     27 1HD2 ASN A   7      -0.917 -21.437   2.644  1.00  0.00     0.159 HD
ATOM     28  OD1 ASN A   7      -2.006 -19.769   3.990  1.00  0.00    -0.274 OA
ENDBRANCH  23  24
ENDBRANCH  22  23
BRANCH  22  29
ATOM     29  C   ASN A   7      -3.549 -20.203   7.237  1.00  0.00     0.241 C 
ATOM     30  N   PHE A   8      -3.231 -18.980   6.787  1.00  0.00    -0.346 N 
ATOM     31  H   PHE A   8      -2.784 -18.906   5.878  1.00  0.00     0.163 HD
ATOM     32  O   ASN A   7      -3.904 -20.410   8.397  1.00  0.00    -0.271 OA
BRANCH  30  33
ATOM     33  CA  PHE A   8      -3.507 -17.731   7.514  1.00  0.00     0.180 C 
BRANCH  33  34
ATOM     34  CB  PHE A   8      -2.509 -16.670   7.004  1.00  0.00     0.073 C 
BRANCH  34  35
ATOM     35  CG  PHE A   8      -2.281 -15.507   7.954  1.00  0.00    -0.056 A 
ATOM     36  CD1 PHE A   8      -2.748 -14.220   7.624  1.00  0.00     0.007 A 
ATOM     37  CE1 PHE A   8      -2.420 -13.122   8.440  1.00  0.00     0.001 A 
ATOM     38  CZ  PHE A   8      -1.630 -13.309   9.587  1.00  0.00     0.000 A 
ATOM     39  CE2 PHE A   8      -1.191 -14.598   9.936  1.00  0.00     0.001 A 
ATOM     40  CD2 PHE A   8      -1.523 -15.697   9.125  1.00  0.00     0.007 A 
ENDBRANCH  34  35
ENDBRANCH  33  34
BRANCH  33  41
ATOM     41  C   PHE A   8      -4.980 -17.269   7.389  1.00  0.00     0.241 C 
ATOM     42  N   TRP A   9      -5.849 -17.759   8.286  1.00  0.00    -0.344 N 
ATOM     43  H   TRP A   9      -5.482 -18.382   8.990  1.00  0.00     0.163 HD
ATOM     44  O   PHE A   8      -5.306 -16.525   6.462  1.00  0.00    -0.271 OA
BRANCH  42  45
ATOM     45  CA  TRP A   9      -7.304 -17.532   8.327  1.00  0.00     0.190 C 
BRANCH  45  46
ATOM     46  C   TRP A   9      -7.829 -16.890   9.630  1.00  0.00     0.197 C 
ATOM     47  OXT TRP A   9      -8.302 -17.668  10.498  1.00  0.00    -0.646 OA
ATOM     48  O   TRP A   9      -8.098 -15.671   9.576  1.00  0.00    -0.646 OA
ENDBRANCH  45  46
BRANCH  45  49
ATOM     49  CB  TRP A   9      -7.987 -18.883   8.062  1.00  0.00     0.077 C 
BRANCH  49  50
ATOM     50  CG  TRP A   9      -8.741 -18.941   6.773  1.00  0.00    -0.028 A 
ATOM     51  CD1 TRP A   9      -8.446 -18.184   5.697  1.00  0.00     0.096 A 
ATOM     52  NE1 TRP A   9      -9.207 -18.581   4.618  1.00  0.00    -0.365 N 
ATOM     53  HE1 TRP A   9      -9.000 -18.282   3.681  1.00  0.00     0.165 HD
ATOM     54  CE2 TRP A   9      -9.990 -19.668   4.935  1.00  0.00     0.042 A 
ATOM     55  CD2 TRP A   9      -9.716 -19.924   6.312  1.00  0.00    -0.002 A 
ATOM     56  CZ2 TRP A   9     -10.842 -20.477   4.170  1.00  0.00     0.030 A 
ATOM     57  CE3 TRP A   9     -10.340 -21.054   6.888  1.00  0.00     0.014 A 
ATOM     58  CZ3 TRP A   9     -11.184 -21.885   6.124  1.00  0.00     0.001 A 
ATOM     59  CH2 TRP A   9     -11.437 -21.599   4.770  1.00  0.00     0.002 A 
ENDBRANCH  49  50
ENDBRANCH  45  49
ENDBRANCH  42  45
ENDBRANCH  33  41
ENDBRANCH  30  33
ENDBRANCH  22  29
ENDBRANCH  19  22
ENDBRANCH   5  18
ENDBRANCH   3   5
BRANCH   1  60
ATOM     60  CA  TYR A   5      -4.308 -22.431   0.910  1.00  0.00     0.180 C 
BRANCH  60  61
ATOM     61  N   TYR A   5      -4.014 -23.822   1.273  1.00  0.00    -0.346 N 
ATOM     62  H   TYR A   5      -4.510 -24.230   2.052  1.00  0.00     0.163 HD
ATOM     63  C   GLU A   4      -3.041 -24.533   0.681  1.00  0.00     0.241 C 
ATOM     64  O   GLU A   4      -2.289 -24.015  -0.139  1.00  0.00    -0.271 OA
BRANCH  63  65
ATOM     65  CA  GLU A   4      -2.688 -25.897   1.292  1.00  0.00     0.177 C 
BRANCH  65  66
ATOM     66  N   GLU A   4      -2.702 -25.843   2.764  1.00  0.00    -0.346 N 
ATOM     67  H   GLU A   4      -3.588 -26.027   3.217  1.00  0.00     0.163 HD
ATOM     68  C   PRO A   3      -1.743 -25.299   3.521  1.00  0.00     0.241 C 
ATOM     69  O   PRO A   3      -0.714 -24.838   3.058  1.00  0.00    -0.271 OA
BRANCH  68  70
ATOM     70  CA  PRO A   3      -1.939 -25.282   5.044  1.00  0.00     0.179 C 
ATOM     71  N   PRO A   3      -3.194 -25.876   5.553  1.00  0.00    -0.337 N 
ATOM     72  CD  PRO A   3      -2.866 -26.861   6.581  1.00  0.00     0.127 C 
ATOM     73  C   ASP A   2      -4.422 -25.369   5.266  1.00  0.00     0.243 C 
ATOM     74  CG  PRO A   3      -1.447 -26.520   7.033  1.00  0.00     0.022 C 
ATOM     75  CB  PRO A   3      -0.800 -26.045   5.736  1.00  0.00     0.037 C 
ATOM     76  O   ASP A   2      -4.505 -24.513   4.381  1.00  0.00    -0.271 OA
BRANCH  73  77
ATOM     77  CA  ASP A   2      -5.743 -26.128   5.641  1.00  0.00     0.186 C 
BRANCH  77  78
ATOM     78  CB  ASP A   2      -6.418 -26.872   4.476  1.00  0.00     0.147 C 
BRANCH  78  79
ATOM     79  CG  ASP A   2      -7.283 -28.016   4.978  1.00  0.00     0.175 C 
ATOM     80  OD2 ASP A   2      -8.419 -27.673   5.385  1.00  0.00    -0.648 OA
ATOM     81  OD1 ASP A   2      -6.933 -29.153   4.641  1.00  0.00    -0.648 OA
ENDBRANCH  78  79
ENDBRANCH  77  78
BRANCH  77  82
ATOM     82  N   ASP A   2      -6.799 -25.355   6.343  1.00  0.00    -0.345 N 
ATOM     83  H   ASP A   2      -7.492 -24.963   5.724  1.00  0.00     0.163 HD
ATOM     84  C   TYR A   1      -7.078 -25.488   7.651  1.00  0.00     0.249 C 
ATOM     85  O   TYR A   1      -6.335 -26.062   8.412  1.00  0.00    -0.271 OA
BRANCH  84  86
ATOM     86  CA  TYR A   1      -8.137 -24.632   8.312  1.00  0.00     0.278 C 
BRANCH  86  87
ATOM     87  N   TYR A   1      -7.769 -23.207   8.290  1.00  0.00    -0.066 N 
ATOM     88  H2  TYR A   1      -8.591 -22.631   8.401  1.00  0.00     0.275 HD
ATOM     89  H1  TYR A   1      -7.325 -22.995   7.408  1.00  0.00     0.275 HD
ATOM     90  H3  TYR A   1      -7.121 -23.016   9.047  1.00  0.00     0.275 HD
ENDBRANCH  86  87
BRANCH  86  91
ATOM     91  CB  TYR A   1      -9.567 -24.892   7.839  1.00  0.00     0.081 C 
BRANCH  91  92
ATOM     92  CG  TYR A   1     -10.552 -24.939   8.994  1.00  0.00    -0.056 A 
ATOM     93  CD2 TYR A   1     -11.883 -24.511   8.785  1.00  0.00     0.010 A 
ATOM     94  CE2 TYR A   1     -12.801 -24.521   9.850  1.00  0.00     0.037 A 
ATOM     95  CZ  TYR A   1     -12.395 -24.969  11.127  1.00  0.00     0.065 A 
ATOM     96  CE1 TYR A   1     -11.079 -25.429  11.328  1.00  0.00     0.037 A 
ATOM     97  CD1 TYR A   1     -10.151 -25.419  10.263  1.00  0.00     0.010 A 
BRANCH  95  98
ATOM     98  OH  TYR A   1     -13.267 -24.965  12.162  1.00  0.00    -0.361 OA
ATOM     99  HH  TYR A   1     -13.782 -24.159  12.189  1.00  0.00     0.217 HD
ENDBRANCH  95  98
ENDBRANCH  91  92
ENDBRANCH  86  91
ENDBRANCH  84  86
ENDBRANCH  77  82
ENDBRANCH  73  77
ENDBRANCH  68  70
ENDBRANCH  65  66
BRANCH  65 100
ATOM    100  CB  GLU A   4      -3.674 -26.988   0.818  1.00  0.00     0.045 C 
BRANCH 100 101
ATOM    101  CG  GLU A   4      -3.073 -28.393   0.642  1.00  0.00     0.116 C 
BRANCH 101 102
ATOM    102  CD  GLU A   4      -3.212 -29.236   1.920  1.00  0.00     0.172 C 
ATOM    103  OE2 GLU A   4      -3.846 -28.706   2.860  1.00  0.00    -0.648 OA
ATOM    104  OE1 GLU A   4      -2.414 -30.197   2.058  1.00  0.00    -0.648 OA
ENDBRANCH 101 102
ENDBRANCH 100 101
ENDBRANCH  65 100
ENDBRANCH  63  65
ENDBRANCH  60  61
BRANCH  60 105
ATOM    105  CB  TYR A   5      -5.088 -22.372  -0.418  1.00  0.00     0.073 C 
BRANCH 105 106
ATOM    106  CG  TYR A   5      -6.492 -22.968  -0.405  1.00  0.00    -0.056 A 
ATOM    107  CD1 TYR A   5      -6.680 -24.370  -0.368  1.00  0.00     0.010 A 
ATOM    108  CE1 TYR A   5      -7.981 -24.903  -0.196  1.00  0.00     0.037 A 
ATOM    109  CZ  TYR A   5      -9.085 -24.038  -0.073  1.00  0.00     0.065 A 
ATOM    110  CE2 TYR A   5      -8.901 -22.641  -0.141  1.00  0.00     0.037 A 
ATOM    111  CD2 TYR A   5      -7.608 -22.107  -0.298  1.00  0.00     0.010 A 
BRANCH 109 112
ATOM    112  OH  TYR A   5     -10.325 -24.545   0.119  1.00  0.00    -0.361 OA
ATOM    113  HH  TYR A   5     -10.844 -24.426  -0.679  1.00  0.00     0.217 HD
ENDBRANCH 109 112
ENDBRANCH 105 106
ENDBRANCH  60 105
ENDBRANCH   1  60
TORSDOF 38
ENDMDL
MODEL 3
REMARK VINA RESULT:      -5.1      3.151      9.951
REMARK WARNING: 32 MAX_TORS EXCEEDED!!!
REMARK  38 active torsions:
REMARK  status: ('A' for Active; 'I' for Inactive)
REMARK    1  A    between atoms: N_1  and  CA_2 
REMARK    2  A    between atoms: CA_2  and  CB_5 
REMARK    3  A    between atoms: CA_2  and  C_3 
REMARK       I    between atoms: C_3  and  N_17 
REMARK    4  A    between atoms: CB_5  and  CG_6 
REMARK    5  A    between atoms: CZ_10  and  OH_11 
REMARK    6  A    between atoms: N_17  and  CA_18 
REMARK    7  A    between atoms: CA_18  and  CB_21 
REMARK    8  A    between atoms: CA_18  and  C_19 
REMARK       I    between atoms: C_19  and  N_26 
REMARK    9  A    between atoms: CB_21  and  CG_22 
REMARK   10  A    between atoms: CA_27  and  C_28 
REMARK       I    between atoms: C_28  and  N_33 
REMARK   11  A    between atoms: N_33  and  CA_34 
REMARK   12  A    between atoms: CA_34  and  C_35 
REMARK   13  A    between atoms: CA_34  and  CB_37 
REMARK       I    between atoms: C_35  and  N_43 
REMARK   14  A    between atoms: CB_37  and  CG_38 
REMARK   15  A    between atoms: CG_38  and  CD_39 
REMARK   16  A    between atoms: N_43  and  CA_44 
REMARK   17  A    between atoms: CA_44  and  CB_47 
REMARK   18  A    between atoms: CA_44  and  C_45 
REMARK       I    between atoms: C_45  and  N_57 
REMARK   19  A    between atoms: CB_47  and  CG_48 
REMARK   20  A    between atoms: CZ_52  and  OH_53 
REMARK   21  A    between atoms: N_57  and  CA_58 
REMARK   22  A    between atoms: CA_58  and  CB_61 
REMARK   23  A    between atoms: CA_58  and  C_59 
REMARK       I    between atoms: C_59  and  N_74 
REMARK   24  A    between atoms: CB_61  and  CG_62 
REMARK   25  A    between atoms: CG_62  and  CD_63 
REMARK   26  A    between atoms: CD_63  and  NE_64 
REMARK       I    between atoms: NE_64  and  CZ_65 
REMARK       I    between atoms: CZ_65  and  NH2_66 
REMARK   27  A    between atoms: N_74  and  CA_75 
REMARK   28  A    between atoms: CA_75  and  CB_78 
REMARK   29  A    between atoms: CA_75  and  C_76 
REMARK       I    between atoms: C_76  and  N_85 
REMARK   30  A    between atoms: CB_78  and  CG_79 
REMARK       I    between atoms: CG_79  and  ND2_80 
REMARK   31  A    between atoms: N_85  and  CA_86 
REMARK   32  A    between atoms: CA_86  and  CB_89 
REMARK   33  A    between atoms: CA_86  and  C_87 
REMARK       I    between atoms: C_87  and  N_97 
REMARK   34  A    between atoms: CB_89  and  CG_90 
REMARK   35  A    between atoms: N_97  and  CA_98 
REMARK   36  A    between atoms: CA_98  and  C_99 
REMARK   37  A    between atoms: CA_98  and  CB_102 
REMARK   38  A    between atoms: CB_102  and  CG_103 
ROOT
ATOM      1  C   TYR A   5      -1.652 -18.716   6.568  1.00  0.00     0.241 C 
ATOM      2  O   TYR A   5      -1.061 -17.935   5.827  1.00  0.00    -0.271 OA
ATOM      3  N   ARG A   6      -1.954 -19.964   6.170  1.00  0.00    -0.346 N 
ATOM      4  H   ARG A   6      -2.429 -20.566   6.837  1.00  0.00     0.163 HD
ENDROOT
BRANCH   3   5
ATOM      5  CA  ARG A   6      -1.580 -20.522   4.851  1.00  0.00     0.176 C 
BRANCH   5   6
ATOM      6  CB  ARG A   6      -1.145 -21.990   5.035  1.00  0.00     0.036 C 
BRANCH   6   7
ATOM      7  CG  ARG A   6      -0.258 -22.511   3.882  1.00  0.00     0.023 C 
BRANCH   7   8
ATOM      8  CD  ARG A   6       0.226 -23.956   4.086  1.00  0.00     0.138 C 
BRANCH   8   9
ATOM      9  NE  ARG A   6      -0.777 -24.946   3.639  1.00  0.00    -0.227 N 
ATOM     10  HE  ARG A   6      -1.701 -24.830   4.015  1.00  0.00     0.177 HD
ATOM     11  CZ  ARG A   6      -0.632 -25.894   2.726  1.00  0.00     0.665 C 
ATOM     12  NH2 ARG A   6      -1.662 -26.594   2.366  1.00  0.00    -0.235 N 
ATOM     13  NH1 ARG A   6       0.499 -26.168   2.141  1.00  0.00    -0.235 N 
ATOM     14 1HH2 ARG A   6      -2.569 -26.222   2.574  1.00  0.00     0.174 HD
ATOM     15 2HH2 ARG A   6      -1.605 -27.060   1.475  1.00  0.00     0.174 HD
ATOM     16 1HH1 ARG A   6       1.257 -25.515   2.228  1.00  0.00     0.174 HD
ATOM     17 2HH1 ARG A   6       0.533 -26.860   1.416  1.00  0.00     0.174 HD
ENDBRANCH   8   9
ENDBRANCH   7   8
ENDBRANCH   6   7
ENDBRANCH   5   6
BRANCH   5  18
ATOM     18  C   ARG A   6      -2.687 -20.396   3.780  1.00  0.00     0.241 C 
ATOM     19  N   ASN A   7      -3.609 -21.362   3.662  1.00  0.00    -0.346 N 
ATOM     20  H   ASN A   7      -3.624 -22.103   4.351  1.00  0.00     0.163 HD
ATOM     21  O   ARG A   6      -2.625 -19.473   2.978  1.00  0.00    -0.271 OA
BRANCH  19  22
ATOM     22  CA  ASN A   7      -4.744 -21.248   2.725  1.00  0.00     0.185 C 
BRANCH  22  23
ATOM     23  CB  ASN A   7      -4.667 -22.327   1.628  1.00  0.00     0.137 C 
BRANCH  23  24
ATOM     24  CG  ASN A   7      -3.718 -23.490   1.837  1.00  0.00     0.217 C 
ATOM     25  ND2 ASN A   7      -2.773 -23.607   0.930  1.00  0.00    -0.370 N 
ATOM     26 2HD2 ASN A   7      -2.844 -23.083   0.060  1.00  0.00     0.159 HD
ATOM     27 1HD2 ASN A   7      -2.083 -24.314   1.065  1.00  0.00     0.159 HD
ATOM     28  OD1 ASN A   7      -3.643 -24.127   2.884  1.00  0.00    -0.274 OA
ENDBRANCH  23  24
ENDBRANCH  22  23
BRANCH  22  29
ATOM     29  C   ASN A   7      -6.123 -21.354   3.414  1.00  0.00     0.241 C 
ATOM     30  N   PHE A   8      -6.351 -20.574   4.481  1.00  0.00    -0.346 N 
ATOM     31  H   PHE A   8      -5.591 -19.995   4.821  1.00  0.00     0.163 HD
ATOM     32  O   ASN A   7      -6.908 -22.231   3.054  1.00  0.00    -0.271 OA
BRANCH  30  33
ATOM     33  CA  PHE A   8      -7.641 -20.486   5.182  1.00  0.00     0.180 C 
BRANCH  33  34
ATOM     34  CB  PHE A   8      -7.365 -20.688   6.687  1.00  0.00     0.073 C 
BRANCH  34  35
ATOM     35  CG  PHE A   8      -8.229 -21.746   7.352  1.00  0.00    -0.056 A 
ATOM     36  CD1 PHE A   8      -9.443 -22.143   6.761  1.00  0.00     0.007 A 
ATOM     37  CE1 PHE A   8     -10.304 -23.022   7.443  1.00  0.00     0.001 A 
ATOM     38  CZ  PHE A   8      -9.951 -23.506   8.716  1.00  0.00     0.000 A 
ATOM     39  CE2 PHE A   8      -8.724 -23.136   9.293  1.00  0.00     0.001 A 
ATOM     40  CD2 PHE A   8      -7.861 -22.262   8.609  1.00  0.00     0.007 A 
ENDBRANCH  34  35
ENDBRANCH  33  34
BRANCH  33  41
ATOM     41  C   PHE A   8      -8.400 -19.167   4.891  1.00  0.00     0.241 C 
ATOM     42  N   TRP A   9      -8.012 -18.079   5.575  1.00  0.00    -0.344 N 
ATOM     43  H   TRP A   9      -7.244 -18.190   6.219  1.00  0.00     0.163 HD
ATOM     44  O   PHE A   8      -9.344 -19.171   4.098  1.00  0.00    -0.271 OA
BRANCH  42  45
ATOM     45  CA  TRP A   9      -8.625 -16.740   5.531  1.00  0.00     0.190 C 
BRANCH  45  46
ATOM     46  C   TRP A   9      -7.926 -15.732   4.593  1.00  0.00     0.197 C 
ATOM     47  OXT TRP A   9      -7.990 -15.965   3.358  1.00  0.00    -0.646 OA
ATOM     48  O   TRP A   9      -7.054 -15.004   5.114  1.00  0.00    -0.646 OA
ENDBRANCH  45  46
BRANCH  45  49
ATOM     49  CB  TRP A   9      -8.672 -16.210   6.973  1.00  0.00     0.077 C 
BRANCH  49  50
ATOM     50  CG  TRP A   9      -8.747 -17.281   8.013  1.00  0.00    -0.028 A 
ATOM     51  CD1 TRP A   9      -7.926 -17.349   9.080  1.00  0.00     0.096 A 
ATOM     52  NE1 TRP A   9      -8.347 -18.344   9.936  1.00  0.00    -0.365 N 
ATOM     53  HE1 TRP A   9      -7.995 -18.425  10.874  1.00  0.00     0.165 HD
ATOM     54  CE2 TRP A   9      -9.510 -18.928   9.486  1.00  0.00     0.042 A 
ATOM     55  CD2 TRP A   9      -9.793 -18.270   8.253  1.00  0.00    -0.002 A 
ATOM     56  CZ2 TRP A   9     -10.360 -19.895  10.041  1.00  0.00     0.030 A 
ATOM     57  CE3 TRP A   9     -10.995 -18.627   7.599  1.00  0.00     0.014 A 
ATOM     58  CZ3 TRP A   9     -11.867 -19.584   8.157  1.00  0.00     0.001 A 
ATOM     59  CH2 TRP A   9     -11.552 -20.219   9.372  1.00  0.00     0.002 A 
ENDBRANCH  49  50
ENDBRANCH  45  49
ENDBRANCH  42  45
ENDBRANCH  33  41
ENDBRANCH  30  33
ENDBRANCH  22  29
ENDBRANCH  19  22
ENDBRANCH   5  18
ENDBRANCH   3   5
BRANCH   1  60
ATOM     60  CA  TYR A   5      -2.308 -18.168   7.848  1.00  0.00     0.180 C 
BRANCH  60  61
ATOM     61  N   TYR A   5      -2.727 -19.240   8.759  1.00  0.00    -0.346 N 
ATOM     62  H   TYR A   5      -2.051 -19.944   9.016  1.00  0.00     0.163 HD
ATOM     63  C   GLU A   4      -3.997 -19.381   9.174  1.00  0.00     0.241 C 
ATOM     64  O   GLU A   4      -4.888 -18.660   8.734  1.00  0.00    -0.271 OA
BRANCH  63  65
ATOM     65  CA  GLU A   4      -4.353 -20.659   9.947  1.00  0.00     0.177 C 
BRANCH  65  66
ATOM     66  N   GLU A   4      -3.154 -21.472  10.215  1.00  0.00    -0.346 N 
ATOM     67  H   GLU A   4      -2.335 -20.978  10.545  1.00  0.00     0.163 HD
ATOM     68  C   PRO A   3      -2.968 -22.727   9.795  1.00  0.00     0.241 C 
ATOM     69  O   PRO A   3      -3.816 -23.354   9.183  1.00  0.00    -0.271 OA
BRANCH  68  70
ATOM     70  CA  PRO A   3      -1.634 -23.415  10.120  1.00  0.00     0.179 C 
ATOM     71  N   PRO A   3      -0.465 -22.529  10.306  1.00  0.00    -0.337 N 
ATOM     72  CD  PRO A   3       0.171 -22.848  11.582  1.00  0.00     0.127 C 
ATOM     73  C   ASP A   2       0.039 -21.751   9.311  1.00  0.00     0.243 C 
ATOM     74  CG  PRO A   3      -0.326 -24.246  11.946  1.00  0.00     0.022 C 
ATOM     75  CB  PRO A   3      -1.757 -24.227  11.418  1.00  0.00     0.037 C 
ATOM     76  O   ASP A   2      -0.629 -21.621   8.281  1.00  0.00    -0.271 OA
BRANCH  73  77
ATOM     77  CA  ASP A   2       1.143 -20.669   9.579  1.00  0.00     0.186 C 
BRANCH  77  78
ATOM     78  CB  ASP A   2       1.229 -19.553   8.525  1.00  0.00     0.147 C 
BRANCH  78  79
ATOM     79  CG  ASP A   2       2.219 -19.905   7.427  1.00  0.00     0.175 C 
ATOM     80  OD2 ASP A   2       1.698 -20.169   6.318  1.00  0.00    -0.648 OA
ATOM     81  OD1 ASP A   2       3.396 -19.585   7.632  1.00  0.00    -0.648 OA
ENDBRANCH  78  79
ENDBRANCH  77  78
BRANCH  77  82
ATOM     82  N   ASP A   2       2.526 -21.152   9.826  1.00  0.00    -0.345 N 
ATOM     83  H   ASP A   2       3.016 -21.421   8.987  1.00  0.00     0.163 HD
ATOM     84  C   TYR A   1       3.222 -20.884  10.944  1.00  0.00     0.249 C 
ATOM     85  O   TYR A   1       2.697 -20.441  11.939  1.00  0.00    -0.271 OA
BRANCH  84  86
ATOM     86  CA  TYR A   1       4.611 -21.449  11.150  1.00  0.00     0.278 C 
BRANCH  86  87
ATOM     87  N   TYR A   1       4.563 -22.857  11.579  1.00  0.00    -0.066 N 
ATOM     88  H2  TYR A   1       5.057 -23.441  10.920  1.00  0.00     0.275 HD
ATOM     89  H1  TYR A   1       3.597 -23.151  11.633  1.00  0.00     0.275 HD
ATOM     90  H3  TYR A   1       4.992 -22.944  12.493  1.00  0.00     0.275 HD
ENDBRANCH  86  87
BRANCH  86  91
ATOM     91  CB  TYR A   1       5.586 -21.204   9.999  1.00  0.00     0.081 C 
BRANCH  91  92
ATOM     92  CG  TYR A   1       6.687 -20.229  10.379  1.00  0.00    -0.056 A 
ATOM     93  CD2 TYR A   1       6.468 -18.842  10.215  1.00  0.00     0.010 A 
ATOM     94  CE2 TYR A   1       7.487 -17.927  10.535  1.00  0.00     0.037 A 
ATOM     95  CZ  TYR A   1       8.724 -18.393  11.032  1.00  0.00     0.065 A 
ATOM     96  CE1 TYR A   1       8.930 -19.772  11.230  1.00  0.00     0.037 A 
ATOM     97  CD1 TYR A   1       7.913 -20.698  10.907  1.00  0.00     0.010 A 
BRANCH  95  98
ATOM     98  OH  TYR A   1       9.716 -17.521  11.326  1.00  0.00    -0.361 OA
ATOM     99  HH  TYR A   1      10.533 -17.972  11.543  1.00  0.00     0.217 HD
ENDBRANCH  95  98
ENDBRANCH  91  92
ENDBRANCH  86  91
ENDBRANCH  84  86
ENDBRANCH  77  82
ENDBRANCH  73  77
ENDBRANCH  68  70
ENDBRANCH  65  66
BRANCH  65 100
ATOM    100  CB  GLU A   4      -5.044 -20.322  11.286  1.00  0.00     0.045 C 
BRANCH 100 101
ATOM    101  CG  GLU A   4      -6.381 -21.037  11.540  1.00  0.00     0.116 C 
BRANCH 101 102
ATOM    102  CD  GLU A   4      -6.201 -22.283  12.425  1.00  0.00     0.172 C 
ATOM    103  OE2 GLU A   4      -5.026 -22.685  12.573  1.00  0.00    -0.648 OA
ATOM    104  OE1 GLU A   4      -7.222 -22.987  12.631  1.00  0.00    -0.648 OA
ENDBRANCH 101 102
ENDBRANCH 100 101
ENDBRANCH  65 100
ENDBRANCH  63  65
ENDBRANCH  60  61
BRANCH  60 105
ATOM    105  CB  TYR A   5      -1.388 -17.169   8.577  1.00  0.00     0.073 C 
BRANCH 105 106
ATOM    106  CG  TYR A   5      -1.813 -15.705   8.533  1.00  0.00    -0.056 A 
ATOM    107  CD1 TYR A   5      -2.710 -15.242   7.541  1.00  0.00     0.010 A 
ATOM    108  CE1 TYR A   5      -3.216 -13.921   7.608  1.00  0.00     0.037 A 
ATOM    109  CZ  TYR A   5      -2.819 -13.068   8.653  1.00  0.00     0.065 A 
ATOM    110  CE2 TYR A   5      -1.900 -13.518   9.626  1.00  0.00     0.037 A 
ATOM    111  CD2 TYR A   5      -1.405 -14.835   9.571  1.00  0.00     0.010 A 
BRANCH 109 112
ATOM    112  OH  TYR A   5      -3.323 -11.815   8.735  1.00  0.00    -0.361 OA
ATOM    113  HH  TYR A   5      -3.983 -11.692   8.050  1.00  0.00     0.217 HD
ENDBRANCH 109 112
ENDBRANCH 105 106
ENDBRANCH  60 105
ENDBRANCH   1  60
TORSDOF 38
ENDMDL
MODEL 4
REMARK VINA RESULT:      -5.0      2.657      7.900
REMARK WARNING: 32 MAX_TORS EXCEEDED!!!
REMARK  38 active torsions:
REMARK  status: ('A' for Active; 'I' for Inactive)
REMARK    1  A    between atoms: N_1  and  CA_2 
REMARK    2  A    between atoms: CA_2  and  CB_5 
REMARK    3  A    between atoms: CA_2  and  C_3 
REMARK       I    between atoms: C_3  and  N_17 
REMARK    4  A    between atoms: CB_5  and  CG_6 
REMARK    5  A    between atoms: CZ_10  and  OH_11 
REMARK    6  A    between atoms: N_17  and  CA_18 
REMARK    7  A    between atoms: CA_18  and  CB_21 
REMARK    8  A    between atoms: CA_18  and  C_19 
REMARK       I    between atoms: C_19  and  N_26 
REMARK    9  A    between atoms: CB_21  and  CG_22 
REMARK   10  A    between atoms: CA_27  and  C_28 
REMARK       I    between atoms: C_28  and  N_33 
REMARK   11  A    between atoms: N_33  and  CA_34 
REMARK   12  A    between atoms: CA_34  and  C_35 
REMARK   13  A    between atoms: CA_34  and  CB_37 
REMARK       I    between atoms: C_35  and  N_43 
REMARK   14  A    between atoms: CB_37  and  CG_38 
REMARK   15  A    between atoms: CG_38  and  CD_39 
REMARK   16  A    between atoms: N_43  and  CA_44 
REMARK   17  A    between atoms: CA_44  and  CB_47 
REMARK   18  A    between atoms: CA_44  and  C_45 
REMARK       I    between atoms: C_45  and  N_57 
REMARK   19  A    between atoms: CB_47  and  CG_48 
REMARK   20  A    between atoms: CZ_52  and  OH_53 
REMARK   21  A    between atoms: N_57  and  CA_58 
REMARK   22  A    between atoms: CA_58  and  CB_61 
REMARK   23  A    between atoms: CA_58  and  C_59 
REMARK       I    between atoms: C_59  and  N_74 
REMARK   24  A    between atoms: CB_61  and  CG_62 
REMARK   25  A    between atoms: CG_62  and  CD_63 
REMARK   26  A    between atoms: CD_63  and  NE_64 
REMARK       I    between atoms: NE_64  and  CZ_65 
REMARK       I    between atoms: CZ_65  and  NH2_66 
REMARK   27  A    between atoms: N_74  and  CA_75 
REMARK   28  A    between atoms: CA_75  and  CB_78 
REMARK   29  A    between atoms: CA_75  and  C_76 
REMARK       I    between atoms: C_76  and  N_85 
REMARK   30  A    between atoms: CB_78  and  CG_79 
REMARK       I    between atoms: CG_79  and  ND2_80 
REMARK   31  A    between atoms: N_85  and  CA_86 
REMARK   32  A    between atoms: CA_86  and  CB_89 
REMARK   33  A    between atoms: CA_86  and  C_87 
REMARK       I    between atoms: C_87  and  N_97 
REMARK   34  A    between atoms: CB_89  and  CG_90 
REMARK   35  A    between atoms: N_97  and  CA_98 
REMARK   36  A    between atoms: CA_98  and  C_99 
REMARK   37  A    between atoms: CA_98  and  CB_102 
REMARK   38  A    between atoms: CB_102  and  CG_103 
ROOT
ATOM      1  C   TYR A   5      -2.879 -20.166   6.151  1.00  0.00     0.241 C 
ATOM      2  O   TYR A   5      -3.197 -20.693   7.215  1.00  0.00    -0.271 OA
ATOM      3  N   ARG A   6      -1.745 -19.453   6.036  1.00  0.00    -0.346 N 
ATOM      4  H   ARG A   6      -1.531 -19.058   5.123  1.00  0.00     0.163 HD
ENDROOT
BRANCH   3   5
ATOM      5  CA  ARG A   6      -0.771 -19.269   7.135  1.00  0.00     0.176 C 
BRANCH   5   6
ATOM      6  CB  ARG A   6       0.563 -18.772   6.542  1.00  0.00     0.036 C 
BRANCH   6   7
ATOM      7  CG  ARG A   6       1.609 -19.897   6.369  1.00  0.00     0.023 C 
BRANCH   7   8
ATOM      8  CD  ARG A   6       1.527 -20.981   7.456  1.00  0.00     0.138 C 
BRANCH   8   9
ATOM      9  NE  ARG A   6       2.327 -20.631   8.650  1.00  0.00    -0.227 N 
ATOM     10  HE  ARG A   6       3.304 -20.467   8.487  1.00  0.00     0.177 HD
ATOM     11  CZ  ARG A   6       1.893 -20.401   9.879  1.00  0.00     0.665 C 
ATOM     12  NH2 ARG A   6       2.724 -19.978  10.780  1.00  0.00    -0.235 N 
ATOM     13  NH1 ARG A   6       0.654 -20.562  10.251  1.00  0.00    -0.235 N 
ATOM     14 1HH2 ARG A   6       3.586 -19.579  10.461  1.00  0.00     0.174 HD
ATOM     15 2HH2 ARG A   6       2.328 -19.514  11.581  1.00  0.00     0.174 HD
ATOM     16 1HH1 ARG A   6      -0.050 -20.673   9.544  1.00  0.00     0.174 HD
ATOM     17 2HH1 ARG A   6       0.376 -20.317  11.184  1.00  0.00     0.174 HD
ENDBRANCH   8   9
ENDBRANCH   7   8
ENDBRANCH   6   7
ENDBRANCH   5   6
BRANCH   5  18
ATOM     18  C   ARG A   6      -1.267 -18.334   8.261  1.00  0.00     0.241 C 
ATOM     19  N   ASN A   7      -2.520 -17.859   8.226  1.00  0.00    -0.346 N 
ATOM     20  H   ASN A   7      -3.151 -18.211   7.517  1.00  0.00     0.163 HD
ATOM     21  O   ARG A   6      -0.463 -17.947   9.099  1.00  0.00    -0.271 OA
BRANCH  19  22
ATOM     22  CA  ASN A   7      -3.079 -17.044   9.322  1.00  0.00     0.185 C 
BRANCH  22  23
ATOM     23  CB  ASN A   7      -3.207 -15.567   8.903  1.00  0.00     0.137 C 
BRANCH  23  24
ATOM     24  CG  ASN A   7      -1.943 -14.736   8.821  1.00  0.00     0.217 C 
ATOM     25  ND2 ASN A   7      -1.557 -14.429   7.602  1.00  0.00    -0.370 N 
ATOM     26 2HD2 ASN A   7      -1.968 -14.915   6.807  1.00  0.00     0.159 HD
ATOM     27 1HD2 ASN A   7      -0.770 -13.824   7.501  1.00  0.00     0.159 HD
ATOM     28  OD1 ASN A   7      -1.443 -14.160   9.784  1.00  0.00    -0.274 OA
ENDBRANCH  23  24
ENDBRANCH  22  23
BRANCH  22  29
ATOM     29  C   ASN A   7      -4.460 -17.533   9.811  1.00  0.00     0.241 C 
ATOM     30  N   PHE A   8      -4.741 -18.839   9.689  1.00  0.00    -0.346 N 
ATOM     31  H   PHE A   8      -4.058 -19.434   9.231  1.00  0.00     0.163 HD
ATOM     32  O   ASN A   7      -5.299 -16.705  10.165  1.00  0.00    -0.271 OA
BRANCH  30  33
ATOM     33  CA  PHE A   8      -5.967 -19.473  10.197  1.00  0.00     0.180 C 
BRANCH  33  34
ATOM     34  CB  PHE A   8      -6.518 -20.378   9.074  1.00  0.00     0.073 C 
BRANCH  34  35
ATOM     35  CG  PHE A   8      -7.717 -19.810   8.335  1.00  0.00    -0.056 A 
ATOM     36  CD1 PHE A   8      -8.307 -20.533   7.281  1.00  0.00     0.007 A 
ATOM     37  CE1 PHE A   8      -9.331 -19.948   6.513  1.00  0.00     0.001 A 
ATOM     38  CZ  PHE A   8      -9.767 -18.642   6.799  1.00  0.00     0.000 A 
ATOM     39  CE2 PHE A   8      -9.202 -17.932   7.873  1.00  0.00     0.001 A 
ATOM     40  CD2 PHE A   8      -8.184 -18.518   8.644  1.00  0.00     0.007 A 
ENDBRANCH  34  35
ENDBRANCH  33  34
BRANCH  33  41
ATOM     41  C   PHE A   8      -5.747 -20.242  11.524  1.00  0.00     0.241 C 
ATOM     42  N   TRP A   9      -6.413 -21.398  11.673  1.00  0.00    -0.344 N 
ATOM     43  H   TRP A   9      -6.997 -21.695  10.907  1.00  0.00     0.163 HD
ATOM     44  O   PHE A   8      -5.026 -19.755  12.397  1.00  0.00    -0.271 OA
BRANCH  42  45
ATOM     45  CA  TRP A   9      -6.429 -22.264  12.866  1.00  0.00     0.190 C 
BRANCH  45  46
ATOM     46  C   TRP A   9      -6.147 -23.757  12.593  1.00  0.00     0.197 C 
ATOM     47  OXT TRP A   9      -5.802 -24.461  13.577  1.00  0.00    -0.646 OA
ATOM     48  O   TRP A   9      -5.909 -24.067  11.406  1.00  0.00    -0.646 OA
ENDBRANCH  45  46
BRANCH  45  49
ATOM     49  CB  TRP A   9      -7.792 -22.075  13.551  1.00  0.00     0.077 C 
BRANCH  49  50
ATOM     50  CG  TRP A   9      -8.845 -21.497  12.662  1.00  0.00    -0.028 A 
ATOM     51  CD1 TRP A   9      -9.225 -20.204  12.692  1.00  0.00     0.096 A 
ATOM     52  NE1 TRP A   9     -10.088 -19.942  11.650  1.00  0.00    -0.365 N 
ATOM     53  HE1 TRP A   9     -10.328 -19.004  11.379  1.00  0.00     0.165 HD
ATOM     54  CE2 TRP A   9     -10.256 -21.052  10.851  1.00  0.00     0.042 A 
ATOM     55  CD2 TRP A   9      -9.472 -22.069  11.474  1.00  0.00    -0.002 A 
ATOM     56  CZ2 TRP A   9     -10.941 -21.256   9.646  1.00  0.00     0.030 A 
ATOM     57  CE3 TRP A   9      -9.401 -23.315  10.812  1.00  0.00     0.014 A 
ATOM     58  CZ3 TRP A   9     -10.070 -23.527   9.589  1.00  0.00     0.001 A 
ATOM     59  CH2 TRP A   9     -10.840 -22.503   9.007  1.00  0.00     0.002 A 
ENDBRANCH  49  50
ENDBRANCH  45  49
ENDBRANCH  42  45
ENDBRANCH  33  41
ENDBRANCH  30  33
ENDBRANCH  22  29
ENDBRANCH  19  22
ENDBRANCH   5  18
ENDBRANCH   3   5
BRANCH   1  60
ATOM     60  CA  TYR A   5      -3.927 -20.078   5.027  1.00  0.00     0.180 C 
BRANCH  60  61
ATOM     61  N   TYR A   5      -3.926 -21.270   4.173  1.00  0.00    -0.346 N 
ATOM     62  H   TYR A   5      -3.557 -22.131   4.550  1.00  0.00     0.163 HD
ATOM     63  C   GLU A   4      -4.296 -21.236   2.882  1.00  0.00     0.241 C 
ATOM     64  O   GLU A   4      -4.572 -20.173   2.333  1.00  0.00    -0.271 OA
BRANCH  63  65
ATOM     65  CA  GLU A   4      -4.049 -22.495   2.039  1.00  0.00     0.177 C 
BRANCH  65  66
ATOM     66  N   GLU A   4      -3.040 -23.367   2.665  1.00  0.00    -0.346 N 
ATOM     67  H   GLU A   4      -2.964 -23.322   3.674  1.00  0.00     0.163 HD
ATOM     68  C   PRO A   3      -2.044 -23.978   2.016  1.00  0.00     0.241 C 
ATOM     69  O   PRO A   3      -1.906 -23.918   0.806  1.00  0.00    -0.271 OA
BRANCH  68  70
ATOM     70  CA  PRO A   3      -1.046 -24.813   2.831  1.00  0.00     0.179 C 
ATOM     71  N   PRO A   3      -1.234 -24.817   4.298  1.00  0.00    -0.337 N 
ATOM     72  CD  PRO A   3      -1.287 -26.201   4.763  1.00  0.00     0.127 C 
ATOM     73  C   ASP A   2      -1.111 -23.699   5.061  1.00  0.00     0.243 C 
ATOM     74  CG  PRO A   3      -0.652 -27.029   3.648  1.00  0.00     0.022 C 
ATOM     75  CB  PRO A   3      -1.103 -26.285   2.395  1.00  0.00     0.037 C 
ATOM     76  O   ASP A   2      -1.048 -22.608   4.489  1.00  0.00    -0.271 OA
BRANCH  73  77
ATOM     77  CA  ASP A   2      -1.515 -23.679   6.578  1.00  0.00     0.186 C 
BRANCH  77  78
ATOM     78  CB  ASP A   2      -0.362 -23.939   7.561  1.00  0.00     0.147 C 
BRANCH  78  79
ATOM     79  CG  ASP A   2      -0.810 -23.749   9.000  1.00  0.00     0.175 C 
ATOM     80  OD2 ASP A   2      -1.301 -22.623   9.251  1.00  0.00    -0.648 OA
ATOM     81  OD1 ASP A   2      -0.952 -24.781   9.667  1.00  0.00    -0.648 OA
ENDBRANCH  78  79
ENDBRANCH  77  78
BRANCH  77  82
ATOM     82  N   ASP A   2      -2.652 -24.540   6.992  1.00  0.00    -0.345 N 
ATOM     83  H   ASP A   2      -2.454 -25.108   7.802  1.00  0.00     0.163 HD
ATOM     84  C   TYR A   1      -3.927 -24.318   6.633  1.00  0.00     0.249 C 
ATOM     85  O   TYR A   1      -4.222 -23.550   5.748  1.00  0.00    -0.271 OA
BRANCH  84  86
ATOM     86  CA  TYR A   1      -5.031 -25.265   7.054  1.00  0.00     0.278 C 
BRANCH  86  87
ATOM     87  N   TYR A   1      -4.486 -26.526   7.584  1.00  0.00    -0.066 N 
ATOM     88  H2  TYR A   1      -4.331 -26.449   8.579  1.00  0.00     0.275 HD
ATOM     89  H1  TYR A   1      -3.611 -26.727   7.120  1.00  0.00     0.275 HD
ATOM     90  H3  TYR A   1      -5.143 -27.277   7.404  1.00  0.00     0.275 HD
ENDBRANCH  86  87
BRANCH  86  91
ATOM     91  CB  TYR A   1      -6.105 -24.650   7.951  1.00  0.00     0.081 C 
BRANCH  91  92
ATOM     92  CG  TYR A   1      -7.370 -25.489   7.985  1.00  0.00    -0.056 A 
ATOM     93  CD2 TYR A   1      -7.627 -26.307   9.109  1.00  0.00     0.010 A 
ATOM     94  CE2 TYR A   1      -8.780 -27.112   9.145  1.00  0.00     0.037 A 
ATOM     95  CZ  TYR A   1      -9.687 -27.093   8.062  1.00  0.00     0.065 A 
ATOM     96  CE1 TYR A   1      -9.451 -26.251   6.959  1.00  0.00     0.037 A 
ATOM     97  CD1 TYR A   1      -8.294 -25.442   6.914  1.00  0.00     0.010 A 
BRANCH  95  98
ATOM     98  OH  TYR A   1     -10.790 -27.878   8.081  1.00  0.00    -0.361 OA
ATOM     99  HH  TYR A   1     -10.823 -28.462   7.322  1.00  0.00     0.217 HD
ENDBRANCH  95  98
ENDBRANCH  91  92
ENDBRANCH  86  91
ENDBRANCH  84  86
ENDBRANCH  77  82
ENDBRANCH  73  77
ENDBRANCH  68  70
ENDBRANCH  65  66
BRANCH  65 100
ATOM    100  CB  GLU A   4      -5.355 -23.296   1.843  1.00  0.00     0.045 C 
BRANCH 100 101
ATOM    101  CG  GLU A   4      -5.554 -23.908   0.446  1.00  0.00     0.116 C 
BRANCH 101 102
ATOM    102  CD  GLU A   4      -5.611 -25.444   0.501  1.00  0.00     0.172 C 
ATOM    103  OE2 GLU A   4      -4.509 -26.036   0.468  1.00  0.00    -0.648 OA
ATOM    104  OE1 GLU A   4      -6.713 -25.983   0.224  1.00  0.00    -0.648 OA
ENDBRANCH 101 102
ENDBRANCH 100 101
ENDBRANCH  65 100
ENDBRANCH  63  65
ENDBRANCH  60  61
BRANCH  60 105
ATOM    105  CB  TYR A   5      -5.339 -19.812   5.584  1.00  0.00     0.073 C 
BRANCH 105 106
ATOM    106  CG  TYR A   5      -5.866 -18.388   5.438  1.00  0.00    -0.056 A 
ATOM    107  CD1 TYR A   5      -6.821 -18.070   4.443  1.00  0.00     0.010 A 
ATOM    108  CE1 TYR A   5      -7.417 -16.785   4.422  1.00  0.00     0.037 A 
ATOM    109  CZ  TYR A   5      -7.051 -15.824   5.382  1.00  0.00     0.065 A 
ATOM    110  CE2 TYR A   5      -6.076 -16.130   6.356  1.00  0.00     0.037 A 
ATOM    111  CD2 TYR A   5      -5.492 -17.411   6.389  1.00  0.00     0.010 A 
BRANCH 109 112
ATOM    112  OH  TYR A   5      -7.639 -14.606   5.381  1.00  0.00    -0.361 OA
ATOM    113  HH  TYR A   5      -7.380 -14.128   4.590  1.00  0.00     0.217 HD
ENDBRANCH 109 112
ENDBRANCH 105 106
ENDBRANCH  60 105
ENDBRANCH   1  60
TORSDOF 38
ENDMDL
MODEL 5
REMARK VINA RESULT:      -5.0     20.808     26.827
REMARK WARNING: 32 MAX_TORS EXCEEDED!!!
REMARK  38 active torsions:
REMARK  status: ('A' for Active; 'I' for Inactive)
REMARK    1  A    between atoms: N_1  and  CA_2 
REMARK    2  A    between atoms: CA_2  and  CB_5 
REMARK    3  A    between atoms: CA_2  and  C_3 
REMARK       I    between atoms: C_3  and  N_17 
REMARK    4  A    between atoms: CB_5  and  CG_6 
REMARK    5  A    between atoms: CZ_10  and  OH_11 
REMARK    6  A    between atoms: N_17  and  CA_18 
REMARK    7  A    between atoms: CA_18  and  CB_21 
REMARK    8  A    between atoms: CA_18  and  C_19 
REMARK       I    between atoms: C_19  and  N_26 
REMARK    9  A    between atoms: CB_21  and  CG_22 
REMARK   10  A    between atoms: CA_27  and  C_28 
REMARK       I    between atoms: C_28  and  N_33 
REMARK   11  A    between atoms: N_33  and  CA_34 
REMARK   12  A    between atoms: CA_34  and  C_35 
REMARK   13  A    between atoms: CA_34  and  CB_37 
REMARK       I    between atoms: C_35  and  N_43 
REMARK   14  A    between atoms: CB_37  and  CG_38 
REMARK   15  A    between atoms: CG_38  and  CD_39 
REMARK   16  A    between atoms: N_43  and  CA_44 
REMARK   17  A    between atoms: CA_44  and  CB_47 
REMARK   18  A    between atoms: CA_44  and  C_45 
REMARK       I    between atoms: C_45  and  N_57 
REMARK   19  A    between atoms: CB_47  and  CG_48 
REMARK   20  A    between atoms: CZ_52  and  OH_53 
REMARK   21  A    between atoms: N_57  and  CA_58 
REMARK   22  A    between atoms: CA_58  and  CB_61 
REMARK   23  A    between atoms: CA_58  and  C_59 
REMARK       I    between atoms: C_59  and  N_74 
REMARK   24  A    between atoms: CB_61  and  CG_62 
REMARK   25  A    between atoms: CG_62  and  CD_63 
REMARK   26  A    between atoms: CD_63  and  NE_64 
REMARK       I    between atoms: NE_64  and  CZ_65 
REMARK       I    between atoms: CZ_65  and  NH2_66 
REMARK   27  A    between atoms: N_74  and  CA_75 
REMARK   28  A    between atoms: CA_75  and  CB_78 
REMARK   29  A    between atoms: CA_75  and  C_76 
REMARK       I    between atoms: C_76  and  N_85 
REMARK   30  A    between atoms: CB_78  and  CG_79 
REMARK       I    between atoms: CG_79  and  ND2_80 
REMARK   31  A    between atoms: N_85  and  CA_86 
REMARK   32  A    between atoms: CA_86  and  CB_89 
REMARK   33  A    between atoms: CA_86  and  C_87 
REMARK       I    between atoms: C_87  and  N_97 
REMARK   34  A    between atoms: CB_89  and  CG_90 
REMARK   35  A    between atoms: N_97  and  CA_98 
REMARK   36  A    between atoms: CA_98  and  C_99 
REMARK   37  A    between atoms: CA_98  and  CB_102 
REMARK   38  A    between atoms: CB_102  and  CG_103 
ROOT
ATOM      1  C   TYR A   5       6.131   1.030   9.962  1.00  0.00     0.241 C 
ATOM      2  O   TYR A   5       5.306   1.159   9.060  1.00  0.00    -0.271 OA
ATOM      3  N   ARG A   6       6.855   2.074  10.402  1.00  0.00    -0.346 N 
ATOM      4  H   ARG A   6       7.508   1.903  11.163  1.00  0.00     0.163 HD
ENDROOT
BRANCH   3   5
ATOM      5  CA  ARG A   6       6.710   3.454   9.887  1.00  0.00     0.176 C 
BRANCH   5   6
ATOM      6  CB  ARG A   6       5.688   4.207  10.762  1.00  0.00     0.036 C 
BRANCH   6   7
ATOM      7  CG  ARG A   6       4.320   4.406  10.068  1.00  0.00     0.023 C 
BRANCH   7   8
ATOM      8  CD  ARG A   6       4.405   5.230   8.773  1.00  0.00     0.138 C 
BRANCH   8   9
ATOM      9  NE  ARG A   6       3.230   5.015   7.900  1.00  0.00    -0.227 N 
ATOM     10  HE  ARG A   6       3.273   4.207   7.304  1.00  0.00     0.177 HD
ATOM     11  CZ  ARG A   6       2.092   5.691   7.889  1.00  0.00     0.665 C 
ATOM     12  NH2 ARG A   6       1.116   5.281   7.141  1.00  0.00    -0.235 N 
ATOM     13  NH1 ARG A   6       1.877   6.757   8.607  1.00  0.00    -0.235 N 
ATOM     14 1HH2 ARG A   6       1.149   4.334   6.816  1.00  0.00     0.174 HD
ATOM     15 2HH2 ARG A   6       0.193   5.600   7.386  1.00  0.00     0.174 HD
ATOM     16 1HH1 ARG A   6       2.516   6.974   9.350  1.00  0.00     0.174 HD
ATOM     17 2HH1 ARG A   6       0.973   7.192   8.597  1.00  0.00     0.174 HD
ENDBRANCH   8   9
ENDBRANCH   7   8
ENDBRANCH   6   7
ENDBRANCH   5   6
BRANCH   5  18
ATOM     18  C   ARG A   6       8.042   4.230   9.787  1.00  0.00     0.241 C 
ATOM     19  N   ASN A   7       9.166   3.578   9.457  1.00  0.00    -0.346 N 
ATOM     20  H   ASN A   7       9.098   2.609   9.174  1.00  0.00     0.163 HD
ATOM     21  O   ARG A   6       8.065   5.404  10.133  1.00  0.00    -0.271 OA
BRANCH  19  22
ATOM     22  CA  ASN A   7      10.447   4.283   9.251  1.00  0.00     0.185 C 
BRANCH  22  23
ATOM     23  CB  ASN A   7      11.536   3.740  10.197  1.00  0.00     0.137 C 
BRANCH  23  24
ATOM     24  CG  ASN A   7      11.208   3.626  11.672  1.00  0.00     0.217 C 
ATOM     25  ND2 ASN A   7      11.991   2.821  12.355  1.00  0.00    -0.370 N 
ATOM     26 2HD2 ASN A   7      12.604   2.176  11.860  1.00  0.00     0.159 HD
ATOM     27 1HD2 ASN A   7      11.857   2.769  13.343  1.00  0.00     0.159 HD
ATOM     28  OD1 ASN A   7      10.458   4.398  12.264  1.00  0.00    -0.274 OA
ENDBRANCH  23  24
ENDBRANCH  22  23
BRANCH  22  29
ATOM     29  C   ASN A   7      10.973   4.192   7.801  1.00  0.00     0.241 C 
ATOM     30  N   PHE A   8      12.301   4.144   7.620  1.00  0.00    -0.346 N 
ATOM     31  H   PHE A   8      12.899   4.227   8.436  1.00  0.00     0.163 HD
ATOM     32  O   ASN A   7      10.180   4.303   6.867  1.00  0.00    -0.271 OA
BRANCH  30  33
ATOM     33  CA  PHE A   8      12.952   3.956   6.314  1.00  0.00     0.180 C 
BRANCH  33  34
ATOM     34  CB  PHE A   8      14.263   4.771   6.330  1.00  0.00     0.073 C 
BRANCH  34  35
ATOM     35  CG  PHE A   8      14.255   6.000   5.438  1.00  0.00    -0.056 A 
ATOM     36  CD1 PHE A   8      13.493   6.011   4.254  1.00  0.00     0.007 A 
ATOM     37  CE1 PHE A   8      13.591   7.096   3.364  1.00  0.00     0.001 A 
ATOM     38  CZ  PHE A   8      14.448   8.172   3.657  1.00  0.00     0.000 A 
ATOM     39  CE2 PHE A   8      15.185   8.177   4.854  1.00  0.00     0.001 A 
ATOM     40  CD2 PHE A   8      15.083   7.096   5.747  1.00  0.00     0.007 A 
ENDBRANCH  34  35
ENDBRANCH  33  34
BRANCH  33  41
ATOM     41  C   PHE A   8      13.184   2.466   5.961  1.00  0.00     0.241 C 
ATOM     42  N   TRP A   9      14.363   1.933   6.319  1.00  0.00    -0.344 N 
ATOM     43  H   TRP A   9      15.010   2.533   6.808  1.00  0.00     0.163 HD
ATOM     44  O   PHE A   8      12.321   1.849   5.333  1.00  0.00    -0.271 OA
BRANCH  42  45
ATOM     45  CA  TRP A   9      14.845   0.572   6.028  1.00  0.00     0.190 C 
BRANCH  45  46
ATOM     46  C   TRP A   9      15.782  -0.032   7.097  1.00  0.00     0.197 C 
ATOM     47  OXT TRP A   9      15.459   0.138   8.301  1.00  0.00    -0.646 OA
ATOM     48  O   TRP A   9      16.946  -0.296   6.726  1.00  0.00    -0.646 OA
ENDBRANCH  45  46
BRANCH  45  49
ATOM     49  CB  TRP A   9      15.530   0.612   4.653  1.00  0.00     0.077 C 
BRANCH  49  50
ATOM     50  CG  TRP A   9      14.742  -0.039   3.562  1.00  0.00    -0.028 A 
ATOM     51  CD1 TRP A   9      14.250  -1.292   3.637  1.00  0.00     0.096 A 
ATOM     52  NE1 TRP A   9      13.436  -1.545   2.554  1.00  0.00    -0.365 N 
ATOM     53  HE1 TRP A   9      12.821  -2.339   2.523  1.00  0.00     0.165 HD
ATOM     54  CE2 TRP A   9      13.312  -0.430   1.754  1.00  0.00     0.042 A 
ATOM     55  CD2 TRP A   9      14.139   0.554   2.372  1.00  0.00    -0.002 A 
ATOM     56  CZ2 TRP A   9      12.535  -0.162   0.619  1.00  0.00     0.030 A 
ATOM     57  CE3 TRP A   9      14.140   1.843   1.792  1.00  0.00     0.014 A 
ATOM     58  CZ3 TRP A   9      13.349   2.130   0.662  1.00  0.00     0.001 A 
ATOM     59  CH2 TRP A   9      12.550   1.133   0.074  1.00  0.00     0.002 A 
ENDBRANCH  49  50
ENDBRANCH  45  49
ENDBRANCH  42  45
ENDBRANCH  33  41
ENDBRANCH  30  33
ENDBRANCH  22  29
ENDBRANCH  19  22
ENDBRANCH   5  18
ENDBRANCH   3   5
BRANCH   1  60
ATOM     60  CA  TYR A   5       6.544  -0.390  10.389  1.00  0.00     0.180 C 
BRANCH  60  61
ATOM     61  N   TYR A   5       5.385  -1.269  10.587  1.00  0.00    -0.346 N 
ATOM     62  H   TYR A   5       5.129  -1.902   9.843  1.00  0.00     0.163 HD
ATOM     63  C   GLU A   4       4.592  -1.188  11.668  1.00  0.00     0.241 C 
ATOM     64  O   GLU A   4       4.756  -0.306  12.506  1.00  0.00    -0.271 OA
BRANCH  63  65
ATOM     65  CA  GLU A   4       3.295  -2.009  11.660  1.00  0.00     0.177 C 
BRANCH  65  66
ATOM     66  N   GLU A   4       3.349  -3.082  10.651  1.00  0.00    -0.346 N 
ATOM     67  H   GLU A   4       3.889  -3.904  10.891  1.00  0.00     0.163 HD
ATOM     68  C   PRO A   3       3.000  -2.948   9.368  1.00  0.00     0.241 C 
ATOM     69  O   PRO A   3       2.538  -1.916   8.910  1.00  0.00    -0.271 OA
BRANCH  68  70
ATOM     70  CA  PRO A   3       3.166  -4.158   8.437  1.00  0.00     0.179 C 
ATOM     71  N   PRO A   3       4.214  -5.134   8.806  1.00  0.00    -0.337 N 
ATOM     72  CD  PRO A   3       3.623  -6.469   8.843  1.00  0.00     0.127 C 
ATOM     73  C   ASP A   2       5.537  -4.821   8.838  1.00  0.00     0.243 C 
ATOM     74  CG  PRO A   3       2.333  -6.366   8.031  1.00  0.00     0.022 C 
ATOM     75  CB  PRO A   3       1.855  -4.956   8.362  1.00  0.00     0.037 C 
ATOM     76  O   ASP A   2       5.855  -3.632   8.761  1.00  0.00    -0.271 OA
BRANCH  73  77
ATOM     77  CA  ASP A   2       6.609  -5.803   9.428  1.00  0.00     0.186 C 
BRANCH  77  78
ATOM     78  CB  ASP A   2       6.238  -6.433  10.781  1.00  0.00     0.147 C 
BRANCH  78  79
ATOM     79  CG  ASP A   2       6.836  -5.650  11.938  1.00  0.00     0.175 C 
ATOM     80  OD2 ASP A   2       6.212  -4.606  12.240  1.00  0.00    -0.648 OA
ATOM     81  OD1 ASP A   2       7.640  -6.262  12.651  1.00  0.00    -0.648 OA
ENDBRANCH  78  79
ENDBRANCH  77  78
BRANCH  77  82
ATOM     82  N   ASP A   2       8.003  -5.305   9.540  1.00  0.00    -0.345 N 
ATOM     83  H   ASP A   2       8.120  -4.585  10.237  1.00  0.00     0.163 HD
ATOM     84  C   TYR A   1       9.077  -5.982   9.100  1.00  0.00     0.249 C 
ATOM     85  O   TYR A   1       8.979  -6.933   8.361  1.00  0.00    -0.271 OA
BRANCH  84  86
ATOM     86  CA  TYR A   1      10.467  -5.391   9.205  1.00  0.00     0.278 C 
BRANCH  86  87
ATOM     87  N   TYR A   1      11.399  -6.038   8.266  1.00  0.00    -0.066 N 
ATOM     88  H2  TYR A   1      10.928  -6.260   7.402  1.00  0.00     0.275 HD
ATOM     89  H1  TYR A   1      11.753  -6.887   8.686  1.00  0.00     0.275 HD
ATOM     90  H3  TYR A   1      12.172  -5.410   8.075  1.00  0.00     0.275 HD
ENDBRANCH  86  87
BRANCH  86  91
ATOM     91  CB  TYR A   1      10.527  -3.865   9.156  1.00  0.00     0.081 C 
BRANCH  91  92
ATOM     92  CG  TYR A   1      10.558  -3.339   7.732  1.00  0.00    -0.056 A 
ATOM     93  CD2 TYR A   1      11.766  -2.816   7.215  1.00  0.00     0.010 A 
ATOM     94  CE2 TYR A   1      11.805  -2.298   5.908  1.00  0.00     0.037 A 
ATOM     95  CZ  TYR A   1      10.641  -2.312   5.108  1.00  0.00     0.065 A 
ATOM     96  CE1 TYR A   1       9.448  -2.866   5.609  1.00  0.00     0.037 A 
ATOM     97  CD1 TYR A   1       9.399  -3.384   6.922  1.00  0.00     0.010 A 
BRANCH  95  98
ATOM     98  OH  TYR A   1      10.666  -1.800   3.855  1.00  0.00    -0.361 OA
ATOM     99  HH  TYR A   1       9.808  -1.465   3.591  1.00  0.00     0.217 HD
ENDBRANCH  95  98
ENDBRANCH  91  92
ENDBRANCH  86  91
ENDBRANCH  84  86
ENDBRANCH  77  82
ENDBRANCH  73  77
ENDBRANCH  68  70
ENDBRANCH  65  66
BRANCH  65 100
ATOM    100  CB  GLU A   4       3.024  -2.633  13.046  1.00  0.00     0.045 C 
BRANCH 100 101
ATOM    101  CG  GLU A   4       2.703  -4.136  13.045  1.00  0.00     0.116 C 
BRANCH 101 102
ATOM    102  CD  GLU A   4       1.193  -4.396  12.914  1.00  0.00     0.172 C 
ATOM    103  OE2 GLU A   4       0.652  -4.985  13.876  1.00  0.00    -0.648 OA
ATOM    104  OE1 GLU A   4       0.702  -4.329  11.759  1.00  0.00    -0.648 OA
ENDBRANCH 101 102
ENDBRANCH 100 101
ENDBRANCH  65 100
ENDBRANCH  63  65
ENDBRANCH  60  61
BRANCH  60 105
ATOM    105  CB  TYR A   5       7.535  -1.019   9.392  1.00  0.00     0.073 C 
BRANCH 105 106
ATOM    106  CG  TYR A   5       8.916  -0.374   9.313  1.00  0.00    -0.056 A 
ATOM    107  CD1 TYR A   5       9.813  -0.454  10.405  1.00  0.00     0.010 A 
ATOM    108  CE1 TYR A   5      11.143   0.009  10.260  1.00  0.00     0.037 A 
ATOM    109  CZ  TYR A   5      11.567   0.559   9.036  1.00  0.00     0.065 A 
ATOM    110  CE2 TYR A   5      10.665   0.666   7.957  1.00  0.00     0.037 A 
ATOM    111  CD2 TYR A   5       9.345   0.194   8.092  1.00  0.00     0.010 A 
BRANCH 109 112
ATOM    112  OH  TYR A   5      12.845   0.976   8.887  1.00  0.00    -0.361 OA
ATOM    113  HH  TYR A   5      12.850   1.873   8.545  1.00  0.00     0.217 HD
ENDBRANCH 109 112
ENDBRANCH 105 106
ENDBRANCH  60 105
ENDBRANCH   1  60
TORSDOF 38
ENDMDL
MODEL 6
REMARK VINA RESULT:      -4.9      2.446      9.479
REMARK WARNING: 32 MAX_TORS EXCEEDED!!!
REMARK  38 active torsions:
REMARK  status: ('A' for Active; 'I' for Inactive)
REMARK    1  A    between atoms: N_1  and  CA_2 
REMARK    2  A    between atoms: CA_2  and  CB_5 
REMARK    3  A    between atoms: CA_2  and  C_3 
REMARK       I    between atoms: C_3  and  N_17 
REMARK    4  A    between atoms: CB_5  and  CG_6 
REMARK    5  A    between atoms: CZ_10  and  OH_11 
REMARK    6  A    between atoms: N_17  and  CA_18 
REMARK    7  A    between atoms: CA_18  and  CB_21 
REMARK    8  A    between atoms: CA_18  and  C_19 
REMARK       I    between atoms: C_19  and  N_26 
REMARK    9  A    between atoms: CB_21  and  CG_22 
REMARK   10  A    between atoms: CA_27  and  C_28 
REMARK       I    between atoms: C_28  and  N_33 
REMARK   11  A    between atoms: N_33  and  CA_34 
REMARK   12  A    between atoms: CA_34  and  C_35 
REMARK   13  A    between atoms: CA_34  and  CB_37 
REMARK       I    between atoms: C_35  and  N_43 
REMARK   14  A    between atoms: CB_37  and  CG_38 
REMARK   15  A    between atoms: CG_38  and  CD_39 
REMARK   16  A    between atoms: N_43  and  CA_44 
REMARK   17  A    between atoms: CA_44  and  CB_47 
REMARK   18  A    between atoms: CA_44  and  C_45 
REMARK       I    between atoms: C_45  and  N_57 
REMARK   19  A    between atoms: CB_47  and  CG_48 
REMARK   20  A    between atoms: CZ_52  and  OH_53 
REMARK   21  A    between atoms: N_57  and  CA_58 
REMARK   22  A    between atoms: CA_58  and  CB_61 
REMARK   23  A    between atoms: CA_58  and  C_59 
REMARK       I    between atoms: C_59  and  N_74 
REMARK   24  A    between atoms: CB_61  and  CG_62 
REMARK   25  A    between atoms: CG_62  and  CD_63 
REMARK   26  A    between atoms: CD_63  and  NE_64 
REMARK       I    between atoms: NE_64  and  CZ_65 
REMARK       I    between atoms: CZ_65  and  NH2_66 
REMARK   27  A    between atoms: N_74  and  CA_75 
REMARK   28  A    between atoms: CA_75  and  CB_78 
REMARK   29  A    between atoms: CA_75  and  C_76 
REMARK       I    between atoms: C_76  and  N_85 
REMARK   30  A    between atoms: CB_78  and  CG_79 
REMARK       I    between atoms: CG_79  and  ND2_80 
REMARK   31  A    between atoms: N_85  and  CA_86 
REMARK   32  A    between atoms: CA_86  and  CB_89 
REMARK   33  A    between atoms: CA_86  and  C_87 
REMARK       I    between atoms: C_87  and  N_97 
REMARK   34  A    between atoms: CB_89  and  CG_90 
REMARK   35  A    between atoms: N_97  and  CA_98 
REMARK   36  A    between atoms: CA_98  and  C_99 
REMARK   37  A    between atoms: CA_98  and  CB_102 
REMARK   38  A    between atoms: CB_102  and  CG_103 
ROOT
ATOM      1  C   TYR A   5      -5.062 -21.857   3.145  1.00  0.00     0.241 C 
ATOM      2  O   TYR A   5      -5.534 -22.799   3.777  1.00  0.00    -0.271 OA
ATOM      3  N   ARG A   6      -5.077 -21.839   1.801  1.00  0.00    -0.346 N 
ATOM      4  H   ARG A   6      -4.686 -21.022   1.339  1.00  0.00     0.163 HD
ENDROOT
BRANCH   3   5
ATOM      5  CA  ARG A   6      -5.681 -22.904   0.969  1.00  0.00     0.176 C 
BRANCH   5   6
ATOM      6  CB  ARG A   6      -4.669 -24.058   0.823  1.00  0.00     0.036 C 
BRANCH   6   7
ATOM      7  CG  ARG A   6      -3.206 -23.573   0.700  1.00  0.00     0.023 C 
BRANCH   7   8
ATOM      8  CD  ARG A   6      -2.333 -24.480  -0.182  1.00  0.00     0.138 C 
BRANCH   8   9
ATOM      9  NE  ARG A   6      -1.507 -25.407   0.622  1.00  0.00    -0.227 N 
ATOM     10  HE  ARG A   6      -0.826 -24.976   1.221  1.00  0.00     0.177 HD
ATOM     11  CZ  ARG A   6      -1.631 -26.721   0.727  1.00  0.00     0.665 C 
ATOM     12  NH2 ARG A   6      -0.897 -27.363   1.582  1.00  0.00    -0.235 N 
ATOM     13  NH1 ARG A   6      -2.469 -27.428   0.024  1.00  0.00    -0.235 N 
ATOM     14 1HH2 ARG A   6      -0.471 -26.831   2.316  1.00  0.00     0.174 HD
ATOM     15 2HH2 ARG A   6      -1.224 -28.271   1.869  1.00  0.00     0.174 HD
ATOM     16 1HH1 ARG A   6      -3.196 -26.952  -0.481  1.00  0.00     0.174 HD
ATOM     17 2HH1 ARG A   6      -2.555 -28.414   0.190  1.00  0.00     0.174 HD
ENDBRANCH   8   9
ENDBRANCH   7   8
ENDBRANCH   6   7
ENDBRANCH   5   6
BRANCH   5  18
ATOM     18  C   ARG A   6      -7.042 -23.414   1.496  1.00  0.00     0.241 C 
ATOM     19  N   ASN A   7      -7.151 -24.674   1.940  1.00  0.00    -0.346 N 
ATOM     20  H   ASN A   7      -6.311 -25.232   2.022  1.00  0.00     0.163 HD
ATOM     21  O   ARG A   6      -8.024 -22.692   1.381  1.00  0.00    -0.271 OA
BRANCH  19  22
ATOM     22  CA  ASN A   7      -8.397 -25.185   2.544  1.00  0.00     0.185 C 
BRANCH  22  23
ATOM     23  CB  ASN A   7      -8.883 -26.456   1.821  1.00  0.00     0.137 C 
BRANCH  23  24
ATOM     24  CG  ASN A   7      -7.902 -27.184   0.924  1.00  0.00     0.217 C 
ATOM     25  ND2 ASN A   7      -7.680 -28.440   1.247  1.00  0.00    -0.370 N 
ATOM     26 2HD2 ASN A   7      -7.980 -28.785   2.156  1.00  0.00     0.159 HD
ATOM     27 1HD2 ASN A   7      -7.097 -28.979   0.644  1.00  0.00     0.159 HD
ATOM     28  OD1 ASN A   7      -7.532 -26.759  -0.167  1.00  0.00    -0.274 OA
ENDBRANCH  23  24
ENDBRANCH  22  23
BRANCH  22  29
ATOM     29  C   ASN A   7      -8.265 -25.503   4.050  1.00  0.00     0.241 C 
ATOM     30  N   PHE A   8      -8.430 -26.777   4.437  1.00  0.00    -0.346 N 
ATOM     31  H   PHE A   8      -8.689 -27.461   3.733  1.00  0.00     0.163 HD
ATOM     32  O   ASN A   7      -8.151 -24.577   4.852  1.00  0.00    -0.271 OA
BRANCH  30  33
ATOM     33  CA  PHE A   8      -8.238 -27.256   5.814  1.00  0.00     0.180 C 
BRANCH  33  34
ATOM     34  CB  PHE A   8      -6.730 -27.161   6.130  1.00  0.00     0.073 C 
BRANCH  34  35
ATOM     35  CG  PHE A   8      -6.000 -28.494   6.139  1.00  0.00    -0.056 A 
ATOM     36  CD1 PHE A   8      -6.695 -29.683   5.848  1.00  0.00     0.007 A 
ATOM     37  CE1 PHE A   8      -6.051 -30.926   5.987  1.00  0.00     0.001 A 
ATOM     38  CZ  PHE A   8      -4.712 -30.982   6.414  1.00  0.00     0.000 A 
ATOM     39  CE2 PHE A   8      -4.008 -29.793   6.673  1.00  0.00     0.001 A 
ATOM     40  CD2 PHE A   8      -4.649 -28.550   6.529  1.00  0.00     0.007 A 
ENDBRANCH  34  35
ENDBRANCH  33  34
BRANCH  33  41
ATOM     41  C   PHE A   8      -9.108 -26.497   6.847  1.00  0.00     0.241 C 
ATOM     42  N   TRP A   9      -8.485 -25.594   7.621  1.00  0.00    -0.344 N 
ATOM     43  H   TRP A   9      -7.497 -25.460   7.466  1.00  0.00     0.163 HD
ATOM     44  O   PHE A   8     -10.304 -26.777   6.956  1.00  0.00    -0.271 OA
BRANCH  42  45
ATOM     45  CA  TRP A   9      -9.076 -24.809   8.718  1.00  0.00     0.190 C 
BRANCH  45  46
ATOM     46  C   TRP A   9      -8.579 -23.351   8.820  1.00  0.00     0.197 C 
ATOM     47  OXT TRP A   9      -7.542 -23.055   8.170  1.00  0.00    -0.646 OA
ATOM     48  O   TRP A   9      -8.990 -22.694   9.800  1.00  0.00    -0.646 OA
ENDBRANCH  45  46
BRANCH  45  49
ATOM     49  CB  TRP A   9      -8.811 -25.575  10.024  1.00  0.00     0.077 C 
BRANCH  49  50
ATOM     50  CG  TRP A   9      -7.439 -26.158  10.120  1.00  0.00    -0.028 A 
ATOM     51  CD1 TRP A   9      -6.387 -25.515  10.666  1.00  0.00     0.096 A 
ATOM     52  NE1 TRP A   9      -5.308 -26.369  10.757  1.00  0.00    -0.365 N 
ATOM     53  HE1 TRP A   9      -4.499 -26.148  11.310  1.00  0.00     0.165 HD
ATOM     54  CE2 TRP A   9      -5.638 -27.635  10.327  1.00  0.00     0.042 A 
ATOM     55  CD2 TRP A   9      -6.998 -27.534   9.910  1.00  0.00    -0.002 A 
ATOM     56  CZ2 TRP A   9      -4.931 -28.845  10.316  1.00  0.00     0.030 A 
ATOM     57  CE3 TRP A   9      -7.626 -28.727   9.485  1.00  0.00     0.014 A 
ATOM     58  CZ3 TRP A   9      -6.932 -29.953   9.487  1.00  0.00     0.001 A 
ATOM     59  CH2 TRP A   9      -5.588 -30.015   9.899  1.00  0.00     0.002 A 
ENDBRANCH  49  50
ENDBRANCH  45  49
ENDBRANCH  42  45
ENDBRANCH  33  41
ENDBRANCH  30  33
ENDBRANCH  22  29
ENDBRANCH  19  22
ENDBRANCH   5  18
ENDBRANCH   3   5
BRANCH   1  60
ATOM     60  CA  TYR A   5      -4.189 -20.830   3.889  1.00  0.00     0.180 C 
BRANCH  60  61
ATOM     61  N   TYR A   5      -4.939 -19.621   4.248  1.00  0.00    -0.346 N 
ATOM     62  H   TYR A   5      -4.822 -18.796   3.678  1.00  0.00     0.163 HD
ATOM     63  C   GLU A   4      -5.688 -19.537   5.360  1.00  0.00     0.241 C 
ATOM     64  O   GLU A   4      -5.707 -20.452   6.179  1.00  0.00    -0.271 OA
BRANCH  63  65
ATOM     65  CA  GLU A   4      -6.248 -18.158   5.736  1.00  0.00     0.177 C 
BRANCH  65  66
ATOM     66  N   GLU A   4      -5.213 -17.313   6.359  1.00  0.00    -0.346 N 
ATOM     67  H   GLU A   4      -4.339 -17.222   5.857  1.00  0.00     0.163 HD
ATOM     68  C   PRO A   3      -5.219 -16.905   7.632  1.00  0.00     0.241 C 
ATOM     69  O   PRO A   3      -6.131 -17.150   8.403  1.00  0.00    -0.271 OA
BRANCH  68  70
ATOM     70  CA  PRO A   3      -4.034 -16.068   8.134  1.00  0.00     0.179 C 
ATOM     71  N   PRO A   3      -2.684 -16.594   7.837  1.00  0.00    -0.337 N 
ATOM     72  CD  PRO A   3      -1.900 -15.544   7.191  1.00  0.00     0.127 C 
ATOM     73  C   ASP A   2      -2.223 -17.772   8.336  1.00  0.00     0.243 C 
ATOM     74  CG  PRO A   3      -2.614 -14.237   7.529  1.00  0.00     0.022 C 
ATOM     75  CB  PRO A   3      -4.080 -14.659   7.524  1.00  0.00     0.037 C 
ATOM     76  O   ASP A   2      -3.031 -18.527   8.883  1.00  0.00    -0.271 OA
BRANCH  73  77
ATOM     77  CA  ASP A   2      -0.876 -18.411   7.848  1.00  0.00     0.186 C 
BRANCH  77  78
ATOM     78  CB  ASP A   2      -0.603 -18.278   6.340  1.00  0.00     0.147 C 
BRANCH  78  79
ATOM     79  CG  ASP A   2       0.885 -18.354   6.040  1.00  0.00     0.175 C 
ATOM     80  OD2 ASP A   2       1.315 -19.511   5.819  1.00  0.00    -0.648 OA
ATOM     81  OD1 ASP A   2       1.432 -17.291   5.724  1.00  0.00    -0.648 OA
ENDBRANCH  78  79
ENDBRANCH  77  78
BRANCH  77  82
ATOM     82  N   ASP A   2      -0.617 -19.825   8.221  1.00  0.00    -0.345 N 
ATOM     83  H   ASP A   2      -0.977 -20.491   7.556  1.00  0.00     0.163 HD
ATOM     84  C   TYR A   1       0.333 -20.206   9.093  1.00  0.00     0.249 C 
ATOM     85  O   TYR A   1       0.885 -19.420   9.827  1.00  0.00    -0.271 OA
BRANCH  84  86
ATOM     86  CA  TYR A   1       0.510 -21.663   9.463  1.00  0.00     0.278 C 
BRANCH  86  87
ATOM     87  N   TYR A   1       1.904 -21.958   9.836  1.00  0.00    -0.066 N 
ATOM     88  H2  TYR A   1       2.002 -22.932  10.084  1.00  0.00     0.275 HD
ATOM     89  H1  TYR A   1       2.163 -21.382  10.625  1.00  0.00     0.275 HD
ATOM     90  H3  TYR A   1       2.512 -21.748   9.053  1.00  0.00     0.275 HD
ENDBRANCH  86  87
BRANCH  86  91
ATOM     91  CB  TYR A   1      -0.508 -22.205  10.466  1.00  0.00     0.081 C 
BRANCH  91  92
ATOM     92  CG  TYR A   1      -1.696 -22.856   9.779  1.00  0.00    -0.056 A 
ATOM     93  CD2 TYR A   1      -1.597 -24.201   9.355  1.00  0.00     0.010 A 
ATOM     94  CE2 TYR A   1      -2.677 -24.811   8.692  1.00  0.00     0.037 A 
ATOM     95  CZ  TYR A   1      -3.865 -24.082   8.459  1.00  0.00     0.065 A 
ATOM     96  CE1 TYR A   1      -3.977 -22.753   8.913  1.00  0.00     0.037 A 
ATOM     97  CD1 TYR A   1      -2.895 -22.133   9.577  1.00  0.00     0.010 A 
BRANCH  95  98
ATOM     98  OH  TYR A   1      -4.902 -24.655   7.806  1.00  0.00    -0.361 OA
ATOM     99  HH  TYR A   1      -4.828 -25.610   7.791  1.00  0.00     0.217 HD
ENDBRANCH  95  98
ENDBRANCH  91  92
ENDBRANCH  86  91
ENDBRANCH  84  86
ENDBRANCH  77  82
ENDBRANCH  73  77
ENDBRANCH  68  70
ENDBRANCH  65  66
BRANCH  65 100
ATOM    100  CB  GLU A   4      -6.813 -17.432   4.496  1.00  0.00     0.045 C 
BRANCH 100 101
ATOM    101  CG  GLU A   4      -7.970 -16.457   4.768  1.00  0.00     0.116 C 
BRANCH 101 102
ATOM    102  CD  GLU A   4      -7.532 -14.992   4.603  1.00  0.00     0.172 C 
ATOM    103  OE2 GLU A   4      -6.743 -14.554   5.470  1.00  0.00    -0.648 OA
ATOM    104  OE1 GLU A   4      -8.239 -14.267   3.859  1.00  0.00    -0.648 OA
ENDBRANCH 101 102
ENDBRANCH 100 101
ENDBRANCH  65 100
ENDBRANCH  63  65
ENDBRANCH  60  61
BRANCH  60 105
ATOM    105  CB  TYR A   5      -3.525 -21.444   5.137  1.00  0.00     0.073 C 
BRANCH 105 106
ATOM    106  CG  TYR A   5      -2.121 -22.008   4.946  1.00  0.00    -0.056 A 
ATOM    107  CD1 TYR A   5      -1.516 -22.023   3.667  1.00  0.00     0.010 A 
ATOM    108  CE1 TYR A   5      -0.158 -22.401   3.532  1.00  0.00     0.037 A 
ATOM    109  CZ  TYR A   5       0.584 -22.773   4.669  1.00  0.00     0.065 A 
ATOM    110  CE2 TYR A   5      -0.026 -22.787   5.941  1.00  0.00     0.037 A 
ATOM    111  CD2 TYR A   5      -1.372 -22.398   6.080  1.00  0.00     0.010 A 
BRANCH 109 112
ATOM    112  OH  TYR A   5       1.889 -23.108   4.546  1.00  0.00    -0.361 OA
ATOM    113  HH  TYR A   5       1.966 -23.901   4.011  1.00  0.00     0.217 HD
ENDBRANCH 109 112
ENDBRANCH 105 106
ENDBRANCH  60 105
ENDBRANCH   1  60
TORSDOF 38
ENDMDL
MODEL 7
REMARK VINA RESULT:      -4.9      2.503      9.619
REMARK WARNING: 32 MAX_TORS EXCEEDED!!!
REMARK  38 active torsions:
REMARK  status: ('A' for Active; 'I' for Inactive)
REMARK    1  A    between atoms: N_1  and  CA_2 
REMARK    2  A    between atoms: CA_2  and  CB_5 
REMARK    3  A    between atoms: CA_2  and  C_3 
REMARK       I    between atoms: C_3  and  N_17 
REMARK    4  A    between atoms: CB_5  and  CG_6 
REMARK    5  A    between atoms: CZ_10  and  OH_11 
REMARK    6  A    between atoms: N_17  and  CA_18 
REMARK    7  A    between atoms: CA_18  and  CB_21 
REMARK    8  A    between atoms: CA_18  and  C_19 
REMARK       I    between atoms: C_19  and  N_26 
REMARK    9  A    between atoms: CB_21  and  CG_22 
REMARK   10  A    between atoms: CA_27  and  C_28 
REMARK       I    between atoms: C_28  and  N_33 
REMARK   11  A    between atoms: N_33  and  CA_34 
REMARK   12  A    between atoms: CA_34  and  C_35 
REMARK   13  A    between atoms: CA_34  and  CB_37 
REMARK       I    between atoms: C_35  and  N_43 
REMARK   14  A    between atoms: CB_37  and  CG_38 
REMARK   15  A    between atoms: CG_38  and  CD_39 
REMARK   16  A    between atoms: N_43  and  CA_44 
REMARK   17  A    between atoms: CA_44  and  CB_47 
REMARK   18  A    between atoms: CA_44  and  C_45 
REMARK       I    between atoms: C_45  and  N_57 
REMARK   19  A    between atoms: CB_47  and  CG_48 
REMARK   20  A    between atoms: CZ_52  and  OH_53 
REMARK   21  A    between atoms: N_57  and  CA_58 
REMARK   22  A    between atoms: CA_58  and  CB_61 
REMARK   23  A    between atoms: CA_58  and  C_59 
REMARK       I    between atoms: C_59  and  N_74 
REMARK   24  A    between atoms: CB_61  and  CG_62 
REMARK   25  A    between atoms: CG_62  and  CD_63 
REMARK   26  A    between atoms: CD_63  and  NE_64 
REMARK       I    between atoms: NE_64  and  CZ_65 
REMARK       I    between atoms: CZ_65  and  NH2_66 
REMARK   27  A    between atoms: N_74  and  CA_75 
REMARK   28  A    between atoms: CA_75  and  CB_78 
REMARK   29  A    between atoms: CA_75  and  C_76 
REMARK       I    between atoms: C_76  and  N_85 
REMARK   30  A    between atoms: CB_78  and  CG_79 
REMARK       I    between atoms: CG_79  and  ND2_80 
REMARK   31  A    between atoms: N_85  and  CA_86 
REMARK   32  A    between atoms: CA_86  and  CB_89 
REMARK   33  A    between atoms: CA_86  and  C_87 
REMARK       I    between atoms: C_87  and  N_97 
REMARK   34  A    between atoms: CB_89  and  CG_90 
REMARK   35  A    between atoms: N_97  and  CA_98 
REMARK   36  A    between atoms: CA_98  and  C_99 
REMARK   37  A    between atoms: CA_98  and  CB_102 
REMARK   38  A    between atoms: CB_102  and  CG_103 
ROOT
ATOM      1  C   TYR A   5      -5.225 -21.391   2.836  1.00  0.00     0.241 C 
ATOM      2  O   TYR A   5      -6.001 -22.126   3.442  1.00  0.00    -0.271 OA
ATOM      3  N   ARG A   6      -4.961 -21.578   1.530  1.00  0.00    -0.346 N 
ATOM      4  H   ARG A   6      -4.323 -20.924   1.084  1.00  0.00     0.163 HD
ENDROOT
BRANCH   3   5
ATOM      5  CA  ARG A   6      -5.590 -22.632   0.705  1.00  0.00     0.176 C 
BRANCH   5   6
ATOM      6  CB  ARG A   6      -4.727 -23.908   0.782  1.00  0.00     0.036 C 
BRANCH   6   7
ATOM      7  CG  ARG A   6      -3.209 -23.620   0.722  1.00  0.00     0.023 C 
BRANCH   7   8
ATOM      8  CD  ARG A   6      -2.449 -24.540  -0.247  1.00  0.00     0.138 C 
BRANCH   8   9
ATOM      9  NE  ARG A   6      -2.930 -25.937  -0.180  1.00  0.00    -0.227 N 
ATOM     10  HE  ARG A   6      -3.779 -26.130  -0.680  1.00  0.00     0.177 HD
ATOM     11  CZ  ARG A   6      -2.323 -26.979   0.365  1.00  0.00     0.665 C 
ATOM     12  NH2 ARG A   6      -2.834 -28.162   0.220  1.00  0.00    -0.235 N 
ATOM     13  NH1 ARG A   6      -1.213 -26.898   1.043  1.00  0.00    -0.235 N 
ATOM     14 1HH2 ARG A   6      -3.501 -28.289  -0.517  1.00  0.00     0.174 HD
ATOM     15 2HH2 ARG A   6      -2.213 -28.943   0.350  1.00  0.00     0.174 HD
ATOM     16 1HH1 ARG A   6      -0.679 -26.048   0.992  1.00  0.00     0.174 HD
ATOM     17 2HH1 ARG A   6      -0.772 -27.732   1.383  1.00  0.00     0.174 HD
ENDBRANCH   8   9
ENDBRANCH   7   8
ENDBRANCH   6   7
ENDBRANCH   5   6
BRANCH   5  18
ATOM     18  C   ARG A   6      -7.060 -22.927   1.078  1.00  0.00     0.241 C 
ATOM     19  N   ASN A   7      -7.362 -24.043   1.756  1.00  0.00    -0.346 N 
ATOM     20  H   ASN A   7      -6.604 -24.617   2.104  1.00  0.00     0.163 HD
ATOM     21  O   ARG A   6      -7.936 -22.194   0.637  1.00  0.00    -0.271 OA
BRANCH  19  22
ATOM     22  CA  ASN A   7      -8.733 -24.328   2.224  1.00  0.00     0.185 C 
BRANCH  22  23
ATOM     23  CB  ASN A   7      -9.317 -25.561   1.509  1.00  0.00     0.137 C 
BRANCH  23  24
ATOM     24  CG  ASN A   7      -8.351 -26.552   0.893  1.00  0.00     0.217 C 
ATOM     25  ND2 ASN A   7      -8.367 -26.601  -0.422  1.00  0.00    -0.370 N 
ATOM     26 2HD2 ASN A   7      -9.133 -26.165  -0.931  1.00  0.00     0.159 HD
ATOM     27 1HD2 ASN A   7      -7.699 -27.187  -0.874  1.00  0.00     0.159 HD
ATOM     28  OD1 ASN A   7      -7.436 -27.086   1.513  1.00  0.00    -0.274 OA
ENDBRANCH  23  24
ENDBRANCH  22  23
BRANCH  22  29
ATOM     29  C   ASN A   7      -8.827 -24.560   3.749  1.00  0.00     0.241 C 
ATOM     30  N   PHE A   8      -8.127 -25.578   4.271  1.00  0.00    -0.346 N 
ATOM     31  H   PHE A   8      -7.615 -26.181   3.636  1.00  0.00     0.163 HD
ATOM     32  O   ASN A   7      -9.632 -23.902   4.407  1.00  0.00    -0.271 OA
BRANCH  30  33
ATOM     33  CA  PHE A   8      -8.033 -25.865   5.710  1.00  0.00     0.180 C 
BRANCH  33  34
ATOM     34  CB  PHE A   8      -7.124 -24.787   6.338  1.00  0.00     0.073 C 
BRANCH  34  35
ATOM     35  CG  PHE A   8      -5.774 -25.296   6.814  1.00  0.00    -0.056 A 
ATOM     36  CD1 PHE A   8      -4.980 -24.507   7.668  1.00  0.00     0.007 A 
ATOM     37  CE1 PHE A   8      -3.677 -24.920   8.000  1.00  0.00     0.001 A 
ATOM     38  CZ  PHE A   8      -3.168 -26.124   7.482  1.00  0.00     0.000 A 
ATOM     39  CE2 PHE A   8      -3.972 -26.930   6.657  1.00  0.00     0.001 A 
ATOM     40  CD2 PHE A   8      -5.275 -26.520   6.329  1.00  0.00     0.007 A 
ENDBRANCH  34  35
ENDBRANCH  33  34
BRANCH  33  41
ATOM     41  C   PHE A   8      -9.415 -25.951   6.403  1.00  0.00     0.241 C 
ATOM     42  N   TRP A   9      -9.598 -25.188   7.493  1.00  0.00    -0.344 N 
ATOM     43  H   TRP A   9      -8.830 -24.600   7.776  1.00  0.00     0.163 HD
ATOM     44  O   PHE A   8     -10.263 -26.736   5.972  1.00  0.00    -0.271 OA
BRANCH  42  45
ATOM     45  CA  TRP A   9     -10.787 -25.154   8.361  1.00  0.00     0.190 C 
BRANCH  45  46
ATOM     46  C   TRP A   9     -11.369 -23.747   8.618  1.00  0.00     0.197 C 
ATOM     47  OXT TRP A   9     -11.858 -23.531   9.757  1.00  0.00    -0.646 OA
ATOM     48  O   TRP A   9     -11.658 -23.076   7.604  1.00  0.00    -0.646 OA
ENDBRANCH  45  46
BRANCH  45  49
ATOM     49  CB  TRP A   9     -10.411 -25.845   9.681  1.00  0.00     0.077 C 
BRANCH  49  50
ATOM     50  CG  TRP A   9      -8.982 -25.659  10.080  1.00  0.00    -0.028 A 
ATOM     51  CD1 TRP A   9      -8.560 -24.706  10.935  1.00  0.00     0.096 A 
ATOM     52  NE1 TRP A   9      -7.226 -24.893  11.228  1.00  0.00    -0.365 N 
ATOM     53  HE1 TRP A   9      -6.776 -24.417  11.990  1.00  0.00     0.165 HD
ATOM     54  CE2 TRP A   9      -6.737 -26.027  10.618  1.00  0.00     0.042 A 
ATOM     55  CD2 TRP A   9      -7.838 -26.542   9.872  1.00  0.00    -0.002 A 
ATOM     56  CZ2 TRP A   9      -5.498 -26.678  10.686  1.00  0.00     0.030 A 
ATOM     57  CE3 TRP A   9      -7.635 -27.766   9.196  1.00  0.00     0.014 A 
ATOM     58  CZ3 TRP A   9      -6.399 -28.440   9.272  1.00  0.00     0.001 A 
ATOM     59  CH2 TRP A   9      -5.332 -27.899  10.012  1.00  0.00     0.002 A 
ENDBRANCH  49  50
ENDBRANCH  45  49
ENDBRANCH  42  45
ENDBRANCH  33  41
ENDBRANCH  30  33
ENDBRANCH  22  29
ENDBRANCH  19  22
ENDBRANCH   5  18
ENDBRANCH   3   5
BRANCH   1  60
ATOM     60  CA  TYR A   5      -4.330 -20.434   3.643  1.00  0.00     0.180 C 
BRANCH  60  61
ATOM     61  N   TYR A   5      -5.068 -19.264   4.132  1.00  0.00    -0.346 N 
ATOM     62  H   TYR A   5      -4.976 -18.393   3.629  1.00  0.00     0.163 HD
ATOM     63  C   GLU A   4      -5.770 -19.278   5.276  1.00  0.00     0.241 C 
ATOM     64  O   GLU A   4      -5.754 -20.258   6.015  1.00  0.00    -0.271 OA
BRANCH  63  65
ATOM     65  CA  GLU A   4      -6.318 -17.939   5.790  1.00  0.00     0.177 C 
BRANCH  65  66
ATOM     66  N   GLU A   4      -5.257 -17.135   6.420  1.00  0.00    -0.346 N 
ATOM     67  H   GLU A   4      -4.340 -17.178   5.994  1.00  0.00     0.163 HD
ATOM     68  C   PRO A   3      -5.325 -16.597   7.642  1.00  0.00     0.241 C 
ATOM     69  O   PRO A   3      -6.317 -16.674   8.347  1.00  0.00    -0.271 OA
BRANCH  68  70
ATOM     70  CA  PRO A   3      -4.105 -15.827   8.169  1.00  0.00     0.179 C 
ATOM     71  N   PRO A   3      -2.781 -16.430   7.903  1.00  0.00    -0.337 N 
ATOM     72  CD  PRO A   3      -1.925 -15.429   7.272  1.00  0.00     0.127 C 
ATOM     73  C   ASP A   2      -2.399 -17.630   8.416  1.00  0.00     0.243 C 
ATOM     74  CG  PRO A   3      -2.571 -14.082   7.591  1.00  0.00     0.022 C 
ATOM     75  CB  PRO A   3      -4.058 -14.420   7.554  1.00  0.00     0.037 C 
ATOM     76  O   ASP A   2      -3.260 -18.336   8.946  1.00  0.00    -0.271 OA
BRANCH  73  77
ATOM     77  CA  ASP A   2      -1.080 -18.347   7.959  1.00  0.00     0.186 C 
BRANCH  77  78
ATOM     78  CB  ASP A   2      -0.867 -18.408   6.437  1.00  0.00     0.147 C 
BRANCH  78  79
ATOM     79  CG  ASP A   2       0.581 -18.715   6.094  1.00  0.00     0.175 C 
ATOM     80  OD2 ASP A   2       0.803 -19.910   5.785  1.00  0.00    -0.648 OA
ATOM     81  OD1 ASP A   2       1.297 -17.741   5.835  1.00  0.00    -0.648 OA
ENDBRANCH  78  79
ENDBRANCH  77  78
BRANCH  77  82
ATOM     82  N   ASP A   2      -0.821 -19.707   8.497  1.00  0.00    -0.345 N 
ATOM     83  H   ASP A   2      -1.318 -20.436   8.008  1.00  0.00     0.163 HD
ATOM     84  C   TYR A   1       0.246 -20.022   9.250  1.00  0.00     0.249 C 
ATOM     85  O   TYR A   1       0.948 -19.178   9.756  1.00  0.00    -0.271 OA
BRANCH  84  86
ATOM     86  CA  TYR A   1       0.423 -21.420   9.805  1.00  0.00     0.278 C 
BRANCH  86  87
ATOM     87  N   TYR A   1       0.388 -21.423  11.277  1.00  0.00    -0.066 N 
ATOM     88  H2  TYR A   1      -0.564 -21.352  11.605  1.00  0.00     0.275 HD
ATOM     89  H1  TYR A   1       0.924 -20.638  11.621  1.00  0.00     0.275 HD
ATOM     90  H3  TYR A   1       0.798 -22.285  11.619  1.00  0.00     0.275 HD
ENDBRANCH  86  87
BRANCH  86  91
ATOM     91  CB  TYR A   1      -0.480 -22.483   9.179  1.00  0.00     0.081 C 
BRANCH  91  92
ATOM     92  CG  TYR A   1      -1.627 -22.870  10.095  1.00  0.00    -0.056 A 
ATOM     93  CD2 TYR A   1      -2.783 -22.057  10.138  1.00  0.00     0.010 A 
ATOM     94  CE2 TYR A   1      -3.842 -22.385  11.002  1.00  0.00     0.037 A 
ATOM     95  CZ  TYR A   1      -3.757 -23.535  11.819  1.00  0.00     0.065 A 
ATOM     96  CE1 TYR A   1      -2.622 -24.365  11.751  1.00  0.00     0.037 A 
ATOM     97  CD1 TYR A   1      -1.551 -24.040  10.888  1.00  0.00     0.010 A 
BRANCH  95  98
ATOM     98  OH  TYR A   1      -4.765 -23.849  12.666  1.00  0.00    -0.361 OA
ATOM     99  HH  TYR A   1      -4.632 -24.705  13.074  1.00  0.00     0.217 HD
ENDBRANCH  95  98
ENDBRANCH  91  92
ENDBRANCH  86  91
ENDBRANCH  84  86
ENDBRANCH  77  82
ENDBRANCH  73  77
ENDBRANCH  68  70
ENDBRANCH  65  66
BRANCH  65 100
ATOM    100  CB  GLU A   4      -6.955 -17.124   4.642  1.00  0.00     0.045 C 
BRANCH 100 101
ATOM    101  CG  GLU A   4      -7.210 -15.639   4.947  1.00  0.00     0.116 C 
BRANCH 101 102
ATOM    102  CD  GLU A   4      -8.362 -15.074   4.099  1.00  0.00     0.172 C 
ATOM    103  OE2 GLU A   4      -8.366 -15.402   2.891  1.00  0.00    -0.648 OA
ATOM    104  OE1 GLU A   4      -8.981 -14.084   4.565  1.00  0.00    -0.648 OA
ENDBRANCH 101 102
ENDBRANCH 100 101
ENDBRANCH  65 100
ENDBRANCH  63  65
ENDBRANCH  60  61
BRANCH  60 105
ATOM    105  CB  TYR A   5      -3.628 -21.156   4.809  1.00  0.00     0.073 C 
BRANCH 105 106
ATOM    106  CG  TYR A   5      -2.574 -22.191   4.427  1.00  0.00    -0.056 A 
ATOM    107  CD1 TYR A   5      -2.820 -23.573   4.607  1.00  0.00     0.010 A 
ATOM    108  CE1 TYR A   5      -1.901 -24.525   4.103  1.00  0.00     0.037 A 
ATOM    109  CZ  TYR A   5      -0.739 -24.096   3.434  1.00  0.00     0.065 A 
ATOM    110  CE2 TYR A   5      -0.478 -22.717   3.281  1.00  0.00     0.037 A 
ATOM    111  CD2 TYR A   5      -1.397 -21.768   3.768  1.00  0.00     0.010 A 
BRANCH 109 112
ATOM    112  OH  TYR A   5       0.126 -25.004   2.928  1.00  0.00    -0.361 OA
ATOM    113  HH  TYR A   5       0.298 -24.800   2.006  1.00  0.00     0.217 HD
ENDBRANCH 109 112
ENDBRANCH 105 106
ENDBRANCH  60 105
ENDBRANCH   1  60
TORSDOF 38
ENDMDL
MODEL 8
REMARK VINA RESULT:      -4.9      2.675      9.256
REMARK WARNING: 32 MAX_TORS EXCEEDED!!!
REMARK  38 active torsions:
REMARK  status: ('A' for Active; 'I' for Inactive)
REMARK    1  A    between atoms: N_1  and  CA_2 
REMARK    2  A    between atoms: CA_2  and  CB_5 
REMARK    3  A    between atoms: CA_2  and  C_3 
REMARK       I    between atoms: C_3  and  N_17 
REMARK    4  A    between atoms: CB_5  and  CG_6 
REMARK    5  A    between atoms: CZ_10  and  OH_11 
REMARK    6  A    between atoms: N_17  and  CA_18 
REMARK    7  A    between atoms: CA_18  and  CB_21 
REMARK    8  A    between atoms: CA_18  and  C_19 
REMARK       I    between atoms: C_19  and  N_26 
REMARK    9  A    between atoms: CB_21  and  CG_22 
REMARK   10  A    between atoms: CA_27  and  C_28 
REMARK       I    between atoms: C_28  and  N_33 
REMARK   11  A    between atoms: N_33  and  CA_34 
REMARK   12  A    between atoms: CA_34  and  C_35 
REMARK   13  A    between atoms: CA_34  and  CB_37 
REMARK       I    between atoms: C_35  and  N_43 
REMARK   14  A    between atoms: CB_37  and  CG_38 
REMARK   15  A    between atoms: CG_38  and  CD_39 
REMARK   16  A    between atoms: N_43  and  CA_44 
REMARK   17  A    between atoms: CA_44  and  CB_47 
REMARK   18  A    between atoms: CA_44  and  C_45 
REMARK       I    between atoms: C_45  and  N_57 
REMARK   19  A    between atoms: CB_47  and  CG_48 
REMARK   20  A    between atoms: CZ_52  and  OH_53 
REMARK   21  A    between atoms: N_57  and  CA_58 
REMARK   22  A    between atoms: CA_58  and  CB_61 
REMARK   23  A    between atoms: CA_58  and  C_59 
REMARK       I    between atoms: C_59  and  N_74 
REMARK   24  A    between atoms: CB_61  and  CG_62 
REMARK   25  A    between atoms: CG_62  and  CD_63 
REMARK   26  A    between atoms: CD_63  and  NE_64 
REMARK       I    between atoms: NE_64  and  CZ_65 
REMARK       I    between atoms: CZ_65  and  NH2_66 
REMARK   27  A    between atoms: N_74  and  CA_75 
REMARK   28  A    between atoms: CA_75  and  CB_78 
REMARK   29  A    between atoms: CA_75  and  C_76 
REMARK       I    between atoms: C_76  and  N_85 
REMARK   30  A    between atoms: CB_78  and  CG_79 
REMARK       I    between atoms: CG_79  and  ND2_80 
REMARK   31  A    between atoms: N_85  and  CA_86 
REMARK   32  A    between atoms: CA_86  and  CB_89 
REMARK   33  A    between atoms: CA_86  and  C_87 
REMARK       I    between atoms: C_87  and  N_97 
REMARK   34  A    between atoms: CB_89  and  CG_90 
REMARK   35  A    between atoms: N_97  and  CA_98 
REMARK   36  A    between atoms: CA_98  and  C_99 
REMARK   37  A    between atoms: CA_98  and  CB_102 
REMARK   38  A    between atoms: CB_102  and  CG_103 
ROOT
ATOM      1  C   TYR A   5      -7.665 -21.541   7.648  1.00  0.00     0.241 C 
ATOM      2  O   TYR A   5      -6.503 -21.760   7.981  1.00  0.00    -0.271 OA
ATOM      3  N   ARG A   6      -8.696 -22.111   8.296  1.00  0.00    -0.346 N 
ATOM      4  H   ARG A   6      -9.634 -21.875   7.982  1.00  0.00     0.163 HD
ENDROOT
BRANCH   3   5
ATOM      5  CA  ARG A   6      -8.542 -23.004   9.467  1.00  0.00     0.176 C 
BRANCH   5   6
ATOM      6  CB  ARG A   6      -9.212 -22.342  10.689  1.00  0.00     0.036 C 
BRANCH   6   7
ATOM      7  CG  ARG A   6      -8.254 -21.427  11.486  1.00  0.00     0.023 C 
BRANCH   7   8
ATOM      8  CD  ARG A   6      -6.903 -22.085  11.807  1.00  0.00     0.138 C 
BRANCH   8   9
ATOM      9  NE  ARG A   6      -5.833 -21.633  10.890  1.00  0.00    -0.227 N 
ATOM     10  HE  ARG A   6      -6.035 -21.719   9.910  1.00  0.00     0.177 HD
ATOM     11  CZ  ARG A   6      -4.696 -21.033  11.203  1.00  0.00     0.665 C 
ATOM     12  NH2 ARG A   6      -3.929 -20.589  10.257  1.00  0.00    -0.235 N 
ATOM     13  NH1 ARG A   6      -4.291 -20.842  12.427  1.00  0.00    -0.235 N 
ATOM     14 1HH2 ARG A   6      -4.339 -20.463   9.351  1.00  0.00     0.174 HD
ATOM     15 2HH2 ARG A   6      -3.264 -19.876  10.509  1.00  0.00     0.174 HD
ATOM     16 1HH1 ARG A   6      -4.947 -20.970  13.177  1.00  0.00     0.174 HD
ATOM     17 2HH1 ARG A   6      -3.446 -20.330  12.600  1.00  0.00     0.174 HD
ENDBRANCH   8   9
ENDBRANCH   7   8
ENDBRANCH   6   7
ENDBRANCH   5   6
BRANCH   5  18
ATOM     18  C   ARG A   6      -9.079 -24.435   9.239  1.00  0.00     0.241 C 
ATOM     19  N   ASN A   7      -9.325 -24.860   7.992  1.00  0.00    -0.346 N 
ATOM     20  H   ASN A   7      -9.050 -24.271   7.217  1.00  0.00     0.163 HD
ATOM     21  O   ARG A   6      -9.386 -25.108  10.214  1.00  0.00    -0.271 OA
BRANCH  19  22
ATOM     22  CA  ASN A   7      -9.744 -26.247   7.708  1.00  0.00     0.185 C 
BRANCH  22  23
ATOM     23  CB  ASN A   7     -11.279 -26.354   7.617  1.00  0.00     0.137 C 
BRANCH  23  24
ATOM     24  CG  ASN A   7     -12.058 -25.113   7.233  1.00  0.00     0.217 C 
ATOM     25  ND2 ASN A   7     -12.501 -25.095   5.994  1.00  0.00    -0.370 N 
ATOM     26 2HD2 ASN A   7     -12.137 -25.766   5.321  1.00  0.00     0.159 HD
ATOM     27 1HD2 ASN A   7     -13.079 -24.331   5.717  1.00  0.00     0.159 HD
ATOM     28  OD1 ASN A   7     -12.486 -24.299   8.046  1.00  0.00    -0.274 OA
ENDBRANCH  23  24
ENDBRANCH  22  23
BRANCH  22  29
ATOM     29  C   ASN A   7      -9.139 -26.819   6.406  1.00  0.00     0.241 C 
ATOM     30  N   PHE A   8      -7.919 -27.372   6.474  1.00  0.00    -0.346 N 
ATOM     31  H   PHE A   8      -7.427 -27.338   7.360  1.00  0.00     0.163 HD
ATOM     32  O   ASN A   7      -9.724 -26.632   5.340  1.00  0.00    -0.271 OA
BRANCH  30  33
ATOM     33  CA  PHE A   8      -7.252 -28.046   5.349  1.00  0.00     0.180 C 
BRANCH  33  34
ATOM     34  CB  PHE A   8      -6.070 -27.155   4.912  1.00  0.00     0.073 C 
BRANCH  34  35
ATOM     35  CG  PHE A   8      -5.289 -26.533   6.056  1.00  0.00    -0.056 A 
ATOM     36  CD1 PHE A   8      -5.495 -25.184   6.405  1.00  0.00     0.007 A 
ATOM     37  CE1 PHE A   8      -4.678 -24.575   7.374  1.00  0.00     0.001 A 
ATOM     38  CZ  PHE A   8      -3.656 -25.313   7.997  1.00  0.00     0.000 A 
ATOM     39  CE2 PHE A   8      -3.470 -26.668   7.674  1.00  0.00     0.001 A 
ATOM     40  CD2 PHE A   8      -4.290 -27.279   6.710  1.00  0.00     0.007 A 
ENDBRANCH  34  35
ENDBRANCH  33  34
BRANCH  33  41
ATOM     41  C   PHE A   8      -6.811 -29.493   5.684  1.00  0.00     0.241 C 
ATOM     42  N   TRP A   9      -7.459 -30.108   6.686  1.00  0.00    -0.344 N 
ATOM     43  H   TRP A   9      -8.197 -29.594   7.141  1.00  0.00     0.163 HD
ATOM     44  O   PHE A   8      -5.871 -29.999   5.069  1.00  0.00    -0.271 OA
BRANCH  42  45
ATOM     45  CA  TRP A   9      -7.172 -31.444   7.238  1.00  0.00     0.190 C 
BRANCH  45  46
ATOM     46  C   TRP A   9      -7.792 -32.622   6.455  1.00  0.00     0.197 C 
ATOM     47  OXT TRP A   9      -8.716 -33.260   7.022  1.00  0.00    -0.646 OA
ATOM     48  O   TRP A   9      -7.105 -33.086   5.520  1.00  0.00    -0.646 OA
ENDBRANCH  45  46
BRANCH  45  49
ATOM     49  CB  TRP A   9      -7.640 -31.446   8.701  1.00  0.00     0.077 C 
BRANCH  49  50
ATOM     50  CG  TRP A   9      -6.658 -30.849   9.656  1.00  0.00    -0.028 A 
ATOM     51  CD1 TRP A   9      -5.646 -31.539  10.220  1.00  0.00     0.096 A 
ATOM     52  NE1 TRP A   9      -4.822 -30.681  10.917  1.00  0.00    -0.365 N 
ATOM     53  HE1 TRP A   9      -3.912 -30.960  11.239  1.00  0.00     0.165 HD
ATOM     54  CE2 TRP A   9      -5.233 -29.374  10.779  1.00  0.00     0.042 A 
ATOM     55  CD2 TRP A   9      -6.410 -29.446   9.976  1.00  0.00    -0.002 A 
ATOM     56  CZ2 TRP A   9      -4.682 -28.158  11.205  1.00  0.00     0.030 A 
ATOM     57  CE3 TRP A   9      -7.010 -28.220   9.609  1.00  0.00     0.014 A 
ATOM     58  CZ3 TRP A   9      -6.454 -26.990  10.016  1.00  0.00     0.001 A 
ATOM     59  CH2 TRP A   9      -5.295 -26.956  10.814  1.00  0.00     0.002 A 
ENDBRANCH  49  50
ENDBRANCH  45  49
ENDBRANCH  42  45
ENDBRANCH  33  41
ENDBRANCH  30  33
ENDBRANCH  22  29
ENDBRANCH  19  22
ENDBRANCH   5  18
ENDBRANCH   3   5
BRANCH   1  60
ATOM     60  CA  TYR A   5      -7.931 -20.842   6.303  1.00  0.00     0.180 C 
BRANCH  60  61
ATOM     61  N   TYR A   5      -7.875 -19.381   6.416  1.00  0.00    -0.346 N 
ATOM     62  H   TYR A   5      -8.743 -18.866   6.433  1.00  0.00     0.163 HD
ATOM     63  C   GLU A   4      -6.719 -18.697   6.390  1.00  0.00     0.241 C 
ATOM     64  O   GLU A   4      -5.652 -19.268   6.180  1.00  0.00    -0.271 OA
BRANCH  63  65
ATOM     65  CA  GLU A   4      -6.801 -17.167   6.300  1.00  0.00     0.177 C 
BRANCH  65  66
ATOM     66  N   GLU A   4      -5.570 -16.535   6.807  1.00  0.00    -0.346 N 
ATOM     67  H   GLU A   4      -4.710 -16.762   6.323  1.00  0.00     0.163 HD
ATOM     68  C   PRO A   3      -5.448 -15.936   7.996  1.00  0.00     0.241 C 
ATOM     69  O   PRO A   3      -6.381 -15.801   8.769  1.00  0.00    -0.271 OA
BRANCH  68  70
ATOM     70  CA  PRO A   3      -4.076 -15.372   8.390  1.00  0.00     0.179 C 
ATOM     71  N   PRO A   3      -2.899 -16.195   8.038  1.00  0.00    -0.337 N 
ATOM     72  CD  PRO A   3      -1.947 -15.367   7.302  1.00  0.00     0.127 C 
ATOM     73  C   ASP A   2      -2.678 -17.431   8.561  1.00  0.00     0.243 C 
ATOM     74  CG  PRO A   3      -2.330 -13.924   7.623  1.00  0.00     0.022 C 
ATOM     75  CB  PRO A   3      -3.849 -14.007   7.723  1.00  0.00     0.037 C 
ATOM     76  O   ASP A   2      -3.595 -17.970   9.186  1.00  0.00    -0.271 OA
BRANCH  73  77
ATOM     77  CA  ASP A   2      -1.542 -18.370   8.022  1.00  0.00     0.186 C 
BRANCH  77  78
ATOM     78  CB  ASP A   2      -0.136 -17.748   8.010  1.00  0.00     0.147 C 
BRANCH  78  79
ATOM     79  CG  ASP A   2       0.801 -18.520   7.096  1.00  0.00     0.175 C 
ATOM     80  OD2 ASP A   2       1.359 -17.825   6.214  1.00  0.00    -0.648 OA
ATOM     81  OD1 ASP A   2       1.165 -19.630   7.501  1.00  0.00    -0.648 OA
ENDBRANCH  78  79
ENDBRANCH  77  78
BRANCH  77  82
ATOM     82  N   ASP A   2      -1.755 -19.009   6.698  1.00  0.00    -0.345 N 
ATOM     83  H   ASP A   2      -1.219 -18.587   5.956  1.00  0.00     0.163 HD
ATOM     84  C   TYR A   1      -2.252 -20.247   6.537  1.00  0.00     0.249 C 
ATOM     85  O   TYR A   1      -2.795 -20.845   7.437  1.00  0.00    -0.271 OA
BRANCH  84  86
ATOM     86  CA  TYR A   1      -2.487 -20.818   5.155  1.00  0.00     0.278 C 
BRANCH  86  87
ATOM     87  N   TYR A   1      -1.243 -20.850   4.367  1.00  0.00    -0.066 N 
ATOM     88  H2  TYR A   1      -0.468 -21.132   4.949  1.00  0.00     0.275 HD
ATOM     89  H1  TYR A   1      -1.067 -19.929   3.992  1.00  0.00     0.275 HD
ATOM     90  H3  TYR A   1      -1.347 -21.509   3.603  1.00  0.00     0.275 HD
ENDBRANCH  86  87
BRANCH  86  91
ATOM     91  CB  TYR A   1      -3.255 -22.139   5.122  1.00  0.00     0.081 C 
BRANCH  91  92
ATOM     92  CG  TYR A   1      -3.803 -22.447   3.740  1.00  0.00    -0.056 A 
ATOM     93  CD2 TYR A   1      -4.192 -21.381   2.897  1.00  0.00     0.010 A 
ATOM     94  CE2 TYR A   1      -4.729 -21.650   1.625  1.00  0.00     0.037 A 
ATOM     95  CZ  TYR A   1      -4.868 -22.985   1.185  1.00  0.00     0.065 A 
ATOM     96  CE1 TYR A   1      -4.447 -24.046   2.009  1.00  0.00     0.037 A 
ATOM     97  CD1 TYR A   1      -3.910 -23.784   3.290  1.00  0.00     0.010 A 
BRANCH  95  98
ATOM     98  OH  TYR A   1      -5.400 -23.253  -0.030  1.00  0.00    -0.361 OA
ATOM     99  HH  TYR A   1      -6.349 -23.372   0.016  1.00  0.00     0.217 HD
ENDBRANCH  95  98
ENDBRANCH  91  92
ENDBRANCH  86  91
ENDBRANCH  84  86
ENDBRANCH  77  82
ENDBRANCH  73  77
ENDBRANCH  68  70
ENDBRANCH  65  66
BRANCH  65 100
ATOM    100  CB  GLU A   4      -7.040 -16.709   4.844  1.00  0.00     0.045 C 
BRANCH 100 101
ATOM    101  CG  GLU A   4      -7.396 -15.223   4.667  1.00  0.00     0.116 C 
BRANCH 101 102
ATOM    102  CD  GLU A   4      -8.547 -15.029   3.665  1.00  0.00     0.172 C 
ATOM    103  OE2 GLU A   4      -8.662 -13.883   3.178  1.00  0.00    -0.648 OA
ATOM    104  OE1 GLU A   4      -9.465 -15.888   3.679  1.00  0.00    -0.648 OA
ENDBRANCH 101 102
ENDBRANCH 100 101
ENDBRANCH  65 100
ENDBRANCH  63  65
ENDBRANCH  60  61
BRANCH  60 105
ATOM    105  CB  TYR A   5      -6.971 -21.337   5.204  1.00  0.00     0.073 C 
BRANCH 105 106
ATOM    106  CG  TYR A   5      -7.615 -22.016   3.999  1.00  0.00    -0.056 A 
ATOM    107  CD1 TYR A   5      -8.072 -21.251   2.899  1.00  0.00     0.010 A 
ATOM    108  CE1 TYR A   5      -8.520 -21.904   1.724  1.00  0.00     0.037 A 
ATOM    109  CZ  TYR A   5      -8.522 -23.309   1.658  1.00  0.00     0.065 A 
ATOM    110  CE2 TYR A   5      -8.096 -24.072   2.765  1.00  0.00     0.037 A 
ATOM    111  CD2 TYR A   5      -7.636 -23.427   3.929  1.00  0.00     0.010 A 
BRANCH 109 112
ATOM    112  OH  TYR A   5      -8.924 -23.934   0.527  1.00  0.00    -0.361 OA
ATOM    113  HH  TYR A   5      -8.885 -24.884   0.656  1.00  0.00     0.217 HD
ENDBRANCH 109 112
ENDBRANCH 105 106
ENDBRANCH  60 105
ENDBRANCH   1  60
TORSDOF 38
ENDMDL
MODEL 9
REMARK VINA RESULT:      -4.9      2.440      8.271
REMARK WARNING: 32 MAX_TORS EXCEEDED!!!
REMARK  38 active torsions:
REMARK  status: ('A' for Active; 'I' for Inactive)
REMARK    1  A    between atoms: N_1  and  CA_2 
REMARK    2  A    between atoms: CA_2  and  CB_5 
REMARK    3  A    between atoms: CA_2  and  C_3 
REMARK       I    between atoms: C_3  and  N_17 
REMARK    4  A    between atoms: CB_5  and  CG_6 
REMARK    5  A    between atoms: CZ_10  and  OH_11 
REMARK    6  A    between atoms: N_17  and  CA_18 
REMARK    7  A    between atoms: CA_18  and  CB_21 
REMARK    8  A    between atoms: CA_18  and  C_19 
REMARK       I    between atoms: C_19  and  N_26 
REMARK    9  A    between atoms: CB_21  and  CG_22 
REMARK   10  A    between atoms: CA_27  and  C_28 
REMARK       I    between atoms: C_28  and  N_33 
REMARK   11  A    between atoms: N_33  and  CA_34 
REMARK   12  A    between atoms: CA_34  and  C_35 
REMARK   13  A    between atoms: CA_34  and  CB_37 
REMARK       I    between atoms: C_35  and  N_43 
REMARK   14  A    between atoms: CB_37  and  CG_38 
REMARK   15  A    between atoms: CG_38  and  CD_39 
REMARK   16  A    between atoms: N_43  and  CA_44 
REMARK   17  A    between atoms: CA_44  and  CB_47 
REMARK   18  A    between atoms: CA_44  and  C_45 
REMARK       I    between atoms: C_45  and  N_57 
REMARK   19  A    between atoms: CB_47  and  CG_48 
REMARK   20  A    between atoms: CZ_52  and  OH_53 
REMARK   21  A    between atoms: N_57  and  CA_58 
REMARK   22  A    between atoms: CA_58  and  CB_61 
REMARK   23  A    between atoms: CA_58  and  C_59 
REMARK       I    between atoms: C_59  and  N_74 
REMARK   24  A    between atoms: CB_61  and  CG_62 
REMARK   25  A    between atoms: CG_62  and  CD_63 
REMARK   26  A    between atoms: CD_63  and  NE_64 
REMARK       I    between atoms: NE_64  and  CZ_65 
REMARK       I    between atoms: CZ_65  and  NH2_66 
REMARK   27  A    between atoms: N_74  and  CA_75 
REMARK   28  A    between atoms: CA_75  and  CB_78 
REMARK   29  A    between atoms: CA_75  and  C_76 
REMARK       I    between atoms: C_76  and  N_85 
REMARK   30  A    between atoms: CB_78  and  CG_79 
REMARK       I    between atoms: CG_79  and  ND2_80 
REMARK   31  A    between atoms: N_85  and  CA_86 
REMARK   32  A    between atoms: CA_86  and  CB_89 
REMARK   33  A    between atoms: CA_86  and  C_87 
REMARK       I    between atoms: C_87  and  N_97 
REMARK   34  A    between atoms: CB_89  and  CG_90 
REMARK   35  A    between atoms: N_97  and  CA_98 
REMARK   36  A    between atoms: CA_98  and  C_99 
REMARK   37  A    between atoms: CA_98  and  CB_102 
REMARK   38  A    between atoms: CB_102  and  CG_103 
ROOT
ATOM      1  C   TYR A   5      -4.833 -21.996   2.055  1.00  0.00     0.241 C 
ATOM      2  O   TYR A   5      -4.722 -20.786   2.236  1.00  0.00    -0.271 OA
ATOM      3  N   ARG A   6      -5.344 -22.801   3.003  1.00  0.00    -0.346 N 
ATOM      4  H   ARG A   6      -5.424 -23.791   2.783  1.00  0.00     0.163 HD
ENDROOT
BRANCH   3   5
ATOM      5  CA  ARG A   6      -5.848 -22.320   4.308  1.00  0.00     0.176 C 
BRANCH   5   6
ATOM      6  CB  ARG A   6      -7.390 -22.314   4.276  1.00  0.00     0.036 C 
BRANCH   6   7
ATOM      7  CG  ARG A   6      -7.988 -20.907   4.045  1.00  0.00     0.023 C 
BRANCH   7   8
ATOM      8  CD  ARG A   6      -7.176 -19.781   4.706  1.00  0.00     0.138 C 
BRANCH   8   9
ATOM      9  NE  ARG A   6      -7.527 -18.451   4.161  1.00  0.00    -0.227 N 
ATOM     10  HE  ARG A   6      -8.217 -18.447   3.432  1.00  0.00     0.177 HD
ATOM     11  CZ  ARG A   6      -7.124 -17.265   4.592  1.00  0.00     0.665 C 
ATOM     12  NH2 ARG A   6      -7.635 -16.193   4.073  1.00  0.00    -0.235 N 
ATOM     13  NH1 ARG A   6      -6.238 -17.100   5.533  1.00  0.00    -0.235 N 
ATOM     14 1HH2 ARG A   6      -8.499 -16.287   3.575  1.00  0.00     0.174 HD
ATOM     15 2HH2 ARG A   6      -7.565 -15.348   4.617  1.00  0.00     0.174 HD
ATOM     16 1HH1 ARG A   6      -5.986 -17.888   6.101  1.00  0.00     0.174 HD
ATOM     17 2HH1 ARG A   6      -6.016 -16.176   5.853  1.00  0.00     0.174 HD
ENDBRANCH   8   9
ENDBRANCH   7   8
ENDBRANCH   6   7
ENDBRANCH   5   6
BRANCH   5  18
ATOM     18  C   ARG A   6      -5.316 -23.120   5.519  1.00  0.00     0.241 C 
ATOM     19  N   ASN A   7      -6.042 -23.182   6.644  1.00  0.00    -0.346 N 
ATOM     20  H   ASN A   7      -6.976 -22.793   6.638  1.00  0.00     0.163 HD
ATOM     21  O   ARG A   6      -4.182 -23.578   5.467  1.00  0.00    -0.271 OA
BRANCH  19  22
ATOM     22  CA  ASN A   7      -5.631 -24.010   7.795  1.00  0.00     0.185 C 
BRANCH  22  23
ATOM     23  CB  ASN A   7      -5.010 -23.143   8.907  1.00  0.00     0.137 C 
BRANCH  23  24
ATOM     24  CG  ASN A   7      -3.550 -23.360   9.248  1.00  0.00     0.217 C 
ATOM     25  ND2 ASN A   7      -2.967 -22.354   9.863  1.00  0.00    -0.370 N 
ATOM     26 2HD2 ASN A   7      -3.425 -21.445   9.885  1.00  0.00     0.159 HD
ATOM     27 1HD2 ASN A   7      -2.026 -22.478  10.171  1.00  0.00     0.159 HD
ATOM     28  OD1 ASN A   7      -2.997 -24.456   9.210  1.00  0.00    -0.274 OA
ENDBRANCH  23  24
ENDBRANCH  22  23
BRANCH  22  29
ATOM     29  C   ASN A   7      -6.788 -24.831   8.407  1.00  0.00     0.241 C 
ATOM     30  N   PHE A   8      -7.296 -25.836   7.678  1.00  0.00    -0.346 N 
ATOM     31  H   PHE A   8      -6.938 -25.974   6.739  1.00  0.00     0.163 HD
ATOM     32  O   ASN A   7      -7.291 -24.461   9.467  1.00  0.00    -0.271 OA
BRANCH  30  33
ATOM     33  CA  PHE A   8      -8.327 -26.769   8.159  1.00  0.00     0.180 C 
BRANCH  33  34
ATOM     34  CB  PHE A   8      -9.657 -26.377   7.481  1.00  0.00     0.073 C 
BRANCH  34  35
ATOM     35  CG  PHE A   8     -10.723 -25.857   8.429  1.00  0.00    -0.056 A 
ATOM     36  CD1 PHE A   8     -11.835 -25.154   7.928  1.00  0.00     0.007 A 
ATOM     37  CE1 PHE A   8     -12.750 -24.559   8.816  1.00  0.00     0.001 A 
ATOM     38  CZ  PHE A   8     -12.556 -24.669  10.204  1.00  0.00     0.000 A 
ATOM     39  CE2 PHE A   8     -11.464 -25.398  10.706  1.00  0.00     0.001 A 
ATOM     40  CD2 PHE A   8     -10.553 -25.998   9.820  1.00  0.00     0.007 A 
ENDBRANCH  34  35
ENDBRANCH  33  34
BRANCH  33  41
ATOM     41  C   PHE A   8      -7.957 -28.255   7.926  1.00  0.00     0.241 C 
ATOM     42  N   TRP A   9      -6.662 -28.586   8.053  1.00  0.00    -0.344 N 
ATOM     43  H   TRP A   9      -6.022 -27.850   8.306  1.00  0.00     0.163 HD
ATOM     44  O   PHE A   8      -8.834 -29.054   7.591  1.00  0.00    -0.271 OA
BRANCH  42  45
ATOM     45  CA  TRP A   9      -6.057 -29.906   7.807  1.00  0.00     0.190 C 
BRANCH  45  46
ATOM     46  C   TRP A   9      -4.995 -30.341   8.840  1.00  0.00     0.197 C 
ATOM     47  OXT TRP A   9      -3.790 -30.262   8.487  1.00  0.00    -0.646 OA
ATOM     48  O   TRP A   9      -5.396 -31.077   9.768  1.00  0.00    -0.646 OA
ENDBRANCH  45  46
BRANCH  45  49
ATOM     49  CB  TRP A   9      -5.470 -29.884   6.387  1.00  0.00     0.077 C 
BRANCH  49  50
ATOM     50  CG  TRP A   9      -5.445 -28.528   5.760  1.00  0.00    -0.028 A 
ATOM     51  CD1 TRP A   9      -4.405 -27.675   5.858  1.00  0.00     0.096 A 
ATOM     52  NE1 TRP A   9      -4.613 -26.583   5.043  1.00  0.00    -0.365 N 
ATOM     53  HE1 TRP A   9      -3.876 -25.936   4.821  1.00  0.00     0.165 HD
ATOM     54  CE2 TRP A   9      -5.780 -26.714   4.324  1.00  0.00     0.042 A 
ATOM     55  CD2 TRP A   9      -6.340 -27.951   4.761  1.00  0.00    -0.002 A 
ATOM     56  CZ2 TRP A   9      -6.363 -25.934   3.316  1.00  0.00     0.030 A 
ATOM     57  CE3 TRP A   9      -7.525 -28.377   4.121  1.00  0.00     0.014 A 
ATOM     58  CZ3 TRP A   9      -8.111 -27.611   3.093  1.00  0.00     0.001 A 
ATOM     59  CH2 TRP A   9      -7.534 -26.392   2.691  1.00  0.00     0.002 A 
ENDBRANCH  49  50
ENDBRANCH  45  49
ENDBRANCH  42  45
ENDBRANCH  33  41
ENDBRANCH  30  33
ENDBRANCH  22  29
ENDBRANCH  19  22
ENDBRANCH   5  18
ENDBRANCH   3   5
BRANCH   1  60
ATOM     60  CA  TYR A   5      -4.114 -22.633   0.851  1.00  0.00     0.180 C 
BRANCH  60  61
ATOM     61  N   TYR A   5      -3.776 -24.041   1.089  1.00  0.00    -0.346 N 
ATOM     62  H   TYR A   5      -4.276 -24.541   1.810  1.00  0.00     0.163 HD
ATOM     63  C   GLU A   4      -2.758 -24.656   0.463  1.00  0.00     0.241 C 
ATOM     64  O   GLU A   4      -2.006 -24.033  -0.280  1.00  0.00    -0.271 OA
BRANCH  63  65
ATOM     65  CA  GLU A   4      -2.369 -26.058   0.951  1.00  0.00     0.177 C 
BRANCH  65  66
ATOM     66  N   GLU A   4      -1.834 -26.017   2.323  1.00  0.00    -0.346 N 
ATOM     67  H   GLU A   4      -2.448 -25.648   3.039  1.00  0.00     0.163 HD
ATOM     68  C   PRO A   3      -0.544 -26.148   2.649  1.00  0.00     0.241 C 
ATOM     69  O   PRO A   3       0.327 -26.377   1.827  1.00  0.00    -0.271 OA
BRANCH  68  70
ATOM     70  CA  PRO A   3      -0.150 -26.029   4.128  1.00  0.00     0.179 C 
ATOM     71  N   PRO A   3      -0.636 -24.829   4.844  1.00  0.00    -0.337 N 
ATOM     72  CD  PRO A   3      -1.320 -25.253   6.063  1.00  0.00     0.127 C 
ATOM     73  C   ASP A   2      -0.255 -23.567   4.514  1.00  0.00     0.243 C 
ATOM     74  CG  PRO A   3      -0.833 -26.676   6.330  1.00  0.00     0.022 C 
ATOM     75  CB  PRO A   3      -0.680 -27.234   4.919  1.00  0.00     0.037 C 
ATOM     76  O   ASP A   2       0.349 -23.401   3.451  1.00  0.00    -0.271 OA
BRANCH  73  77
ATOM     77  CA  ASP A   2      -0.935 -22.301   5.146  1.00  0.00     0.186 C 
BRANCH  77  78
ATOM     78  CB  ASP A   2      -1.705 -21.415   4.153  1.00  0.00     0.147 C 
BRANCH  78  79
ATOM     79  CG  ASP A   2      -2.215 -20.150   4.823  1.00  0.00     0.175 C 
ATOM     80  OD2 ASP A   2      -1.442 -19.166   4.739  1.00  0.00    -0.648 OA
ATOM     81  OD1 ASP A   2      -3.425 -20.118   5.078  1.00  0.00    -0.648 OA
ENDBRANCH  78  79
ENDBRANCH  77  78
BRANCH  77  82
ATOM     82  N   ASP A   2      -0.082 -21.407   5.969  1.00  0.00    -0.345 N 
ATOM     83  H   ASP A   2       0.216 -20.574   5.484  1.00  0.00     0.163 HD
ATOM     84  C   TYR A   1      -0.037 -21.445   7.311  1.00  0.00     0.249 C 
ATOM     85  O   TYR A   1      -0.494 -22.367   7.945  1.00  0.00    -0.271 OA
BRANCH  84  86
ATOM     86  CA  TYR A   1       0.893 -20.534   8.085  1.00  0.00     0.278 C 
BRANCH  86  87
ATOM     87  N   TYR A   1       1.812 -19.814   7.188  1.00  0.00    -0.066 N 
ATOM     88  H2  TYR A   1       1.585 -20.010   6.224  1.00  0.00     0.275 HD
ATOM     89  H1  TYR A   1       2.759 -20.112   7.379  1.00  0.00     0.275 HD
ATOM     90  H3  TYR A   1       1.733 -18.817   7.356  1.00  0.00     0.275 HD
ENDBRANCH  86  87
BRANCH  86  91
ATOM     91  CB  TYR A   1       0.207 -19.621   9.101  1.00  0.00     0.081 C 
BRANCH  91  92
ATOM     92  CG  TYR A   1      -0.834 -18.726   8.454  1.00  0.00    -0.056 A 
ATOM     93  CD2 TYR A   1      -0.420 -17.538   7.808  1.00  0.00     0.010 A 
ATOM     94  CE2 TYR A   1      -1.374 -16.683   7.229  1.00  0.00     0.037 A 
ATOM     95  CZ  TYR A   1      -2.746 -17.017   7.281  1.00  0.00     0.065 A 
ATOM     96  CE1 TYR A   1      -3.156 -18.217   7.892  1.00  0.00     0.037 A 
ATOM     97  CD1 TYR A   1      -2.204 -19.080   8.479  1.00  0.00     0.010 A 
BRANCH  95  98
ATOM     98  OH  TYR A   1      -3.672 -16.191   6.741  1.00  0.00    -0.361 OA
ATOM     99  HH  TYR A   1      -4.340 -16.676   6.255  1.00  0.00     0.217 HD
ENDBRANCH  95  98
ENDBRANCH  91  92
ENDBRANCH  86  91
ENDBRANCH  84  86
ENDBRANCH  77  82
ENDBRANCH  73  77
ENDBRANCH  68  70
ENDBRANCH  65  66
BRANCH  65 100
ATOM    100  CB  GLU A   4      -3.580 -27.016   0.910  1.00  0.00     0.045 C 
BRANCH 100 101
ATOM    101  CG  GLU A   4      -3.532 -28.188   1.904  1.00  0.00     0.116 C 
BRANCH 101 102
ATOM    102  CD  GLU A   4      -2.419 -29.188   1.551  1.00  0.00     0.172 C 
ATOM    103  OE2 GLU A   4      -2.673 -29.986   0.621  1.00  0.00    -0.648 OA
ATOM    104  OE1 GLU A   4      -1.520 -29.368   2.411  1.00  0.00    -0.648 OA
ENDBRANCH 101 102
ENDBRANCH 100 101
ENDBRANCH  65 100
ENDBRANCH  63  65
ENDBRANCH  60  61
BRANCH  60 105
ATOM    105  CB  TYR A   5      -4.933 -22.485  -0.445  1.00  0.00     0.073 C 
BRANCH 105 106
ATOM    106  CG  TYR A   5      -6.357 -23.031  -0.411  1.00  0.00    -0.056 A 
ATOM    107  CD1 TYR A   5      -6.615 -24.394  -0.695  1.00  0.00     0.010 A 
ATOM    108  CE1 TYR A   5      -7.916 -24.920  -0.504  1.00  0.00     0.037 A 
ATOM    109  CZ  TYR A   5      -8.952 -24.086  -0.045  1.00  0.00     0.065 A 
ATOM    110  CE2 TYR A   5      -8.703 -22.720   0.208  1.00  0.00     0.037 A 
ATOM    111  CD2 TYR A   5      -7.408 -22.197   0.034  1.00  0.00     0.010 A 
BRANCH 109 112
ATOM    112  OH  TYR A   5     -10.189 -24.593   0.163  1.00  0.00    -0.361 OA
ATOM    113  HH  TYR A   5     -10.481 -24.367   1.049  1.00  0.00     0.217 HD
ENDBRANCH 109 112
ENDBRANCH 105 106
ENDBRANCH  60 105
ENDBRANCH   1  60
TORSDOF 38
ENDMDL
