MODEL 1
REMARK VINA RESULT:      -5.2      0.000      0.000
REMARK WARNING: 32 MAX_TORS EXCEEDED!!!
REMARK  38 active torsions:
REMARK  status: ('A' for Active; 'I' for Inactive)
REMARK    1  A    between atoms: N_1  and  CA_2 
REMARK    2  A    between atoms: CA_2  and  CB_5 
REMARK    3  A    between atoms: CA_2  and  C_3 
REMARK       I    between atoms: C_3  and  N_17 
REMARK    4  A    between atoms: CB_5  and  CG_6 
REMARK    5  A    between atoms: CZ_10  and  OH_11 
REMARK    6  A    between atoms: N_17  and  CA_18 
REMARK    7  A    between atoms: CA_18  and  CB_21 
REMARK    8  A    between atoms: CA_18  and  C_19 
REMARK       I    between atoms: C_19  and  N_26 
REMARK    9  A    between atoms: CB_21  and  CG_22 
REMARK   10  A    between atoms: CA_27  and  C_28 
REMARK       I    between atoms: C_28  and  N_33 
REMARK   11  A    between atoms: N_33  and  CA_34 
REMARK   12  A    between atoms: CA_34  and  C_35 
REMARK   13  A    between atoms: CA_34  and  CB_37 
REMARK       I    between atoms: C_35  and  N_43 
REMARK   14  A    between atoms: CB_37  and  CG_38 
REMARK   15  A    between atoms: CG_38  and  CD_39 
REMARK   16  A    between atoms: N_43  and  CA_44 
REMARK   17  A    between atoms: CA_44  and  CB_47 
REMARK   18  A    between atoms: CA_44  and  C_45 
REMARK       I    between atoms: C_45  and  N_57 
REMARK   19  A    between atoms: CB_47  and  CG_48 
REMARK   20  A    between atoms: CZ_52  and  OH_53 
REMARK   21  A    between atoms: N_57  and  CA_58 
REMARK   22  A    between atoms: CA_58  and  CB_61 
REMARK   23  A    between atoms: CA_58  and  C_59 
REMARK       I    between atoms: C_59  and  N_74 
REMARK   24  A    between atoms: CB_61  and  CG_62 
REMARK   25  A    between atoms: CG_62  and  CD_63 
REMARK   26  A    between atoms: CD_63  and  NE_64 
REMARK       I    between atoms: NE_64  and  CZ_65 
REMARK       I    between atoms: CZ_65  and  NH2_66 
REMARK   27  A    between atoms: N_74  and  CA_75 
REMARK   28  A    between atoms: CA_75  and  CB_78 
REMARK   29  A    between atoms: CA_75  and  C_76 
REMARK       I    between atoms: C_76  and  N_85 
REMARK   30  A    between atoms: CB_78  and  CG_79 
REMARK       I    between atoms: CG_79  and  ND2_80 
REMARK   31  A    between atoms: N_85  and  CA_86 
REMARK   32  A    between atoms: CA_86  and  CB_89 
REMARK   33  A    between atoms: CA_86  and  C_87 
REMARK       I    between atoms: C_87  and  N_97 
REMARK   34  A    between atoms: CB_89  and  CG_90 
REMARK   35  A    between atoms: N_97  and  CA_98 
REMARK   36  A    between atoms: CA_98  and  C_99 
REMARK   37  A    between atoms: CA_98  and  CB_102 
REMARK   38  A    between atoms: CB_102  and  CG_103 
ROOT
ATOM      1  C   TYR A   5      -6.883 -11.177 -11.058  1.00  0.00     0.241 C 
ATOM      2  O   TYR A   5      -7.961 -11.765 -11.008  1.00  0.00    -0.271 OA
ATOM      3  N   ARG A   6      -5.761 -11.806 -11.450  1.00  0.00    -0.346 N 
ATOM      4  H   ARG A   6      -4.905 -11.258 -11.486  1.00  0.00     0.163 HD
ENDROOT
BRANCH   3   5
ATOM      5  CA  ARG A   6      -5.718 -13.219 -11.887  1.00  0.00     0.176 C 
BRANCH   5   6
ATOM      6  CB  ARG A   6      -4.775 -13.338 -13.101  1.00  0.00     0.036 C 
BRANCH   6   7
ATOM      7  CG  ARG A   6      -5.395 -14.123 -14.280  1.00  0.00     0.023 C 
BRANCH   7   8
ATOM      8  CD  ARG A   6      -4.474 -15.219 -14.838  1.00  0.00     0.138 C 
BRANCH   8   9
ATOM      9  NE  ARG A   6      -3.454 -15.641 -13.853  1.00  0.00    -0.227 N 
ATOM     10  HE  ARG A   6      -2.726 -14.975 -13.668  1.00  0.00     0.177 HD
ATOM     11  CZ  ARG A   6      -3.446 -16.738 -13.111  1.00  0.00     0.665 C 
ATOM     12  NH2 ARG A   6      -2.533 -16.885 -12.202  1.00  0.00    -0.235 N 
ATOM     13  NH1 ARG A   6      -4.323 -17.695 -13.225  1.00  0.00    -0.235 N 
ATOM     14 1HH2 ARG A   6      -2.042 -16.064 -11.903  1.00  0.00     0.174 HD
ATOM     15 2HH2 ARG A   6      -2.732 -17.537 -11.461  1.00  0.00     0.174 HD
ATOM     16 1HH1 ARG A   6      -5.159 -17.522 -13.754  1.00  0.00     0.174 HD
ATOM     17 2HH1 ARG A   6      -4.297 -18.475 -12.595  1.00  0.00     0.174 HD
ENDBRANCH   8   9
ENDBRANCH   7   8
ENDBRANCH   6   7
ENDBRANCH   5   6
BRANCH   5  18
ATOM     18  C   ARG A   6      -5.320 -14.210 -10.769  1.00  0.00     0.241 C 
ATOM     19  N   ASN A   7      -4.906 -13.741  -9.584  1.00  0.00    -0.346 N 
ATOM     20  H   ASN A   7      -4.967 -12.746  -9.410  1.00  0.00     0.163 HD
ATOM     21  O   ARG A   6      -5.274 -15.404 -11.033  1.00  0.00    -0.271 OA
BRANCH  19  22
ATOM     22  CA  ASN A   7      -4.608 -14.637  -8.449  1.00  0.00     0.185 C 
BRANCH  22  23
ATOM     23  CB  ASN A   7      -3.120 -14.558  -8.058  1.00  0.00     0.137 C 
BRANCH  23  24
ATOM     24  CG  ASN A   7      -2.114 -15.281  -8.931  1.00  0.00     0.217 C 
ATOM     25  ND2 ASN A   7      -1.592 -16.364  -8.397  1.00  0.00    -0.370 N 
ATOM     26 2HD2 ASN A   7      -1.706 -16.539  -7.401  1.00  0.00     0.159 HD
ATOM     27 1HD2 ASN A   7      -0.978 -16.912  -8.962  1.00  0.00     0.159 HD
ATOM     28  OD1 ASN A   7      -1.970 -15.060 -10.130  1.00  0.00    -0.274 OA
ENDBRANCH  23  24
ENDBRANCH  22  23
BRANCH  22  29
ATOM     29  C   ASN A   7      -5.457 -14.343  -7.193  1.00  0.00     0.241 C 
ATOM     30  N   PHE A   8      -6.747 -14.021  -7.371  1.00  0.00    -0.346 N 
ATOM     31  H   PHE A   8      -7.091 -13.929  -8.321  1.00  0.00     0.163 HD
ATOM     32  O   ASN A   7      -4.904 -14.280  -6.095  1.00  0.00    -0.271 OA
BRANCH  30  33
ATOM     33  CA  PHE A   8      -7.707 -13.812  -6.276  1.00  0.00     0.180 C 
BRANCH  33  34
ATOM     34  CB  PHE A   8      -8.801 -12.856  -6.797  1.00  0.00     0.073 C 
BRANCH  34  35
ATOM     35  CG  PHE A   8      -9.123 -11.697  -5.869  1.00  0.00    -0.056 A 
ATOM     36  CD1 PHE A   8     -10.075 -10.731  -6.246  1.00  0.00     0.007 A 
ATOM     37  CE1 PHE A   8     -10.274  -9.590  -5.448  1.00  0.00     0.001 A 
ATOM     38  CZ  PHE A   8      -9.524  -9.414  -4.271  1.00  0.00     0.000 A 
ATOM     39  CE2 PHE A   8      -8.597 -10.394  -3.877  1.00  0.00     0.001 A 
ATOM     40  CD2 PHE A   8      -8.401 -11.537  -4.671  1.00  0.00     0.007 A 
ENDBRANCH  34  35
ENDBRANCH  33  34
BRANCH  33  41
ATOM     41  C   PHE A   8      -8.292 -15.135  -5.721  1.00  0.00     0.241 C 
ATOM     42  N   TRP A   9      -9.579 -15.396  -6.001  1.00  0.00    -0.344 N 
ATOM     43  H   TRP A   9     -10.072 -14.722  -6.566  1.00  0.00     0.163 HD
ATOM     44  O   PHE A   8      -7.588 -15.863  -5.017  1.00  0.00    -0.271 OA
BRANCH  42  45
ATOM     45  CA  TRP A   9     -10.375 -16.541  -5.526  1.00  0.00     0.190 C 
BRANCH  45  46
ATOM     46  C   TRP A   9     -10.363 -17.775  -6.453  1.00  0.00     0.197 C 
ATOM     47  OXT TRP A   9     -10.152 -17.568  -7.676  1.00  0.00    -0.646 OA
ATOM     48  O   TRP A   9     -10.924 -18.802  -6.013  1.00  0.00    -0.646 OA
ENDBRANCH  45  46
BRANCH  45  49
ATOM     49  CB  TRP A   9     -11.809 -16.038  -5.295  1.00  0.00     0.077 C 
BRANCH  49  50
ATOM     50  CG  TRP A   9     -11.888 -14.617  -4.838  1.00  0.00    -0.028 A 
ATOM     51  CD1 TRP A   9     -12.736 -13.708  -5.360  1.00  0.00     0.096 A 
ATOM     52  NE1 TRP A   9     -12.690 -12.543  -4.624  1.00  0.00    -0.365 N 
ATOM     53  HE1 TRP A   9     -13.382 -11.821  -4.725  1.00  0.00     0.165 HD
ATOM     54  CE2 TRP A   9     -11.848 -12.671  -3.542  1.00  0.00     0.042 A 
ATOM     55  CD2 TRP A   9     -11.315 -13.991  -3.650  1.00  0.00    -0.002 A 
ATOM     56  CZ2 TRP A   9     -11.548 -11.820  -2.470  1.00  0.00     0.030 A 
ATOM     57  CE3 TRP A   9     -10.463 -14.423  -2.609  1.00  0.00     0.014 A 
ATOM     58  CZ3 TRP A   9     -10.169 -13.583  -1.516  1.00  0.00     0.001 A 
ATOM     59  CH2 TRP A   9     -10.707 -12.285  -1.445  1.00  0.00     0.002 A 
ENDBRANCH  49  50
ENDBRANCH  45  49
ENDBRANCH  42  45
ENDBRANCH  33  41
ENDBRANCH  30  33
ENDBRANCH  22  29
ENDBRANCH  19  22
ENDBRANCH   5  18
ENDBRANCH   3   5
BRANCH   1  60
ATOM     60  CA  TYR A   5      -6.762  -9.795 -10.390  1.00  0.00     0.180 C 
BRANCH  60  61
ATOM     61  N   TYR A   5      -6.910  -8.699 -11.354  1.00  0.00    -0.346 N 
ATOM     62  H   TYR A   5      -7.832  -8.320 -11.513  1.00  0.00     0.163 HD
ATOM     63  C   GLU A   4      -5.890  -8.256 -12.108  1.00  0.00     0.241 C 
ATOM     64  O   GLU A   4      -4.797  -8.815 -12.083  1.00  0.00    -0.271 OA
BRANCH  63  65
ATOM     65  CA  GLU A   4      -6.216  -7.256 -13.227  1.00  0.00     0.177 C 
BRANCH  65  66
ATOM     66  N   GLU A   4      -7.660  -6.969 -13.280  1.00  0.00    -0.346 N 
ATOM     67  H   GLU A   4      -8.139  -6.877 -12.393  1.00  0.00     0.163 HD
ATOM     68  C   PRO A   3      -8.430  -7.103 -14.365  1.00  0.00     0.241 C 
ATOM     69  O   PRO A   3      -7.990  -7.430 -15.455  1.00  0.00    -0.271 OA
BRANCH  68  70
ATOM     70  CA  PRO A   3      -9.931  -6.808 -14.235  1.00  0.00     0.179 C 
ATOM     71  N   PRO A   3     -10.476  -6.761 -12.862  1.00  0.00    -0.337 N 
ATOM     72  CD  PRO A   3     -11.202  -5.505 -12.685  1.00  0.00     0.127 C 
ATOM     73  C   ASP A   2     -10.492  -7.840 -12.035  1.00  0.00     0.243 C 
ATOM     74  CG  PRO A   3     -11.504  -5.007 -14.097  1.00  0.00     0.022 C 
ATOM     75  CB  PRO A   3     -10.263  -5.447 -14.867  1.00  0.00     0.037 C 
ATOM     76  O   ASP A   2      -9.840  -8.834 -12.365  1.00  0.00    -0.271 OA
BRANCH  73  77
ATOM     77  CA  ASP A   2     -10.881  -7.721 -10.520  1.00  0.00     0.186 C 
BRANCH  77  78
ATOM     78  CB  ASP A   2     -12.357  -8.012 -10.203  1.00  0.00     0.147 C 
BRANCH  78  79
ATOM     79  CG  ASP A   2     -12.984  -6.882  -9.404  1.00  0.00     0.175 C 
ATOM     80  OD2 ASP A   2     -13.619  -6.046 -10.090  1.00  0.00    -0.648 OA
ATOM     81  OD1 ASP A   2     -13.090  -7.069  -8.186  1.00  0.00    -0.648 OA
ENDBRANCH  78  79
ENDBRANCH  77  78
BRANCH  77  82
ATOM     82  N   ASP A   2     -10.518  -6.463  -9.818  1.00  0.00    -0.345 N 
ATOM     83  H   ASP A   2     -11.243  -6.117  -9.209  1.00  0.00     0.163 HD
ATOM     84  C   TYR A   1      -9.254  -6.037  -9.655  1.00  0.00     0.249 C 
ATOM     85  O   TYR A   1      -8.330  -6.510 -10.275  1.00  0.00    -0.271 OA
BRANCH  84  86
ATOM     86  CA  TYR A   1      -8.959  -4.719  -8.970  1.00  0.00     0.278 C 
BRANCH  86  87
ATOM     87  N   TYR A   1      -8.887  -3.613  -9.939  1.00  0.00    -0.066 N 
ATOM     88  H2  TYR A   1      -9.779  -3.489 -10.396  1.00  0.00     0.275 HD
ATOM     89  H1  TYR A   1      -8.180  -3.825 -10.629  1.00  0.00     0.275 HD
ATOM     90  H3  TYR A   1      -8.637  -2.758  -9.454  1.00  0.00     0.275 HD
ENDBRANCH  86  87
BRANCH  86  91
ATOM     91  CB  TYR A   1      -9.842  -4.405  -7.763  1.00  0.00     0.081 C 
BRANCH  91  92
ATOM     92  CG  TYR A   1      -9.086  -4.532  -6.453  1.00  0.00    -0.056 A 
ATOM     93  CD2 TYR A   1      -9.736  -5.095  -5.330  1.00  0.00     0.010 A 
ATOM     94  CE2 TYR A   1      -9.059  -5.193  -4.101  1.00  0.00     0.037 A 
ATOM     95  CZ  TYR A   1      -7.726  -4.739  -3.991  1.00  0.00     0.065 A 
ATOM     96  CE1 TYR A   1      -7.066  -4.211  -5.118  1.00  0.00     0.037 A 
ATOM     97  CD1 TYR A   1      -7.740  -4.106  -6.355  1.00  0.00     0.010 A 
BRANCH  95  98
ATOM     98  OH  TYR A   1      -7.073  -4.814  -2.808  1.00  0.00    -0.361 OA
ATOM     99  HH  TYR A   1      -7.400  -5.533  -2.267  1.00  0.00     0.217 HD
ENDBRANCH  95  98
ENDBRANCH  91  92
ENDBRANCH  86  91
ENDBRANCH  84  86
ENDBRANCH  77  82
ENDBRANCH  73  77
ENDBRANCH  68  70
ENDBRANCH  65  66
BRANCH  65 100
ATOM    100  CB  GLU A   4      -5.445  -5.932 -13.030  1.00  0.00     0.045 C 
BRANCH 100 101
ATOM    101  CG  GLU A   4      -5.025  -5.618 -11.585  1.00  0.00     0.116 C 
BRANCH 101 102
ATOM    102  CD  GLU A   4      -3.515  -5.349 -11.477  1.00  0.00     0.172 C 
ATOM    103  OE2 GLU A   4      -3.183  -4.352 -10.797  1.00  0.00    -0.648 OA
ATOM    104  OE1 GLU A   4      -2.775  -5.902 -12.329  1.00  0.00    -0.648 OA
ENDBRANCH 101 102
ENDBRANCH 100 101
ENDBRANCH  65 100
ENDBRANCH  63  65
ENDBRANCH  60  61
BRANCH  60 105
ATOM    105  CB  TYR A   5      -7.762  -9.633  -9.230  1.00  0.00     0.073 C 
BRANCH 105 106
ATOM    106  CG  TYR A   5      -7.167  -9.297  -7.866  1.00  0.00    -0.056 A 
ATOM    107  CD1 TYR A   5      -6.225 -10.161  -7.257  1.00  0.00     0.010 A 
ATOM    108  CE1 TYR A   5      -5.564  -9.760  -6.070  1.00  0.00     0.037 A 
ATOM    109  CZ  TYR A   5      -5.853  -8.509  -5.493  1.00  0.00     0.065 A 
ATOM    110  CE2 TYR A   5      -6.813  -7.661  -6.083  1.00  0.00     0.037 A 
ATOM    111  CD2 TYR A   5      -7.462  -8.050  -7.270  1.00  0.00     0.010 A 
BRANCH 109 112
ATOM    112  OH  TYR A   5      -5.202  -8.113  -4.375  1.00  0.00    -0.361 OA
ATOM    113  HH  TYR A   5      -4.803  -7.254  -4.526  1.00  0.00     0.217 HD
ENDBRANCH 109 112
ENDBRANCH 105 106
ENDBRANCH  60 105
ENDBRANCH   1  60
TORSDOF 38
ENDMDL
MODEL 2
REMARK VINA RESULT:      -5.0     14.743     20.453
REMARK WARNING: 32 MAX_TORS EXCEEDED!!!
REMARK  38 active torsions:
REMARK  status: ('A' for Active; 'I' for Inactive)
REMARK    1  A    between atoms: N_1  and  CA_2 
REMARK    2  A    between atoms: CA_2  and  CB_5 
REMARK    3  A    between atoms: CA_2  and  C_3 
REMARK       I    between atoms: C_3  and  N_17 
REMARK    4  A    between atoms: CB_5  and  CG_6 
REMARK    5  A    between atoms: CZ_10  and  OH_11 
REMARK    6  A    between atoms: N_17  and  CA_18 
REMARK    7  A    between atoms: CA_18  and  CB_21 
REMARK    8  A    between atoms: CA_18  and  C_19 
REMARK       I    between atoms: C_19  and  N_26 
REMARK    9  A    between atoms: CB_21  and  CG_22 
REMARK   10  A    between atoms: CA_27  and  C_28 
REMARK       I    between atoms: C_28  and  N_33 
REMARK   11  A    between atoms: N_33  and  CA_34 
REMARK   12  A    between atoms: CA_34  and  C_35 
REMARK   13  A    between atoms: CA_34  and  CB_37 
REMARK       I    between atoms: C_35  and  N_43 
REMARK   14  A    between atoms: CB_37  and  CG_38 
REMARK   15  A    between atoms: CG_38  and  CD_39 
REMARK   16  A    between atoms: N_43  and  CA_44 
REMARK   17  A    between atoms: CA_44  and  CB_47 
REMARK   18  A    between atoms: CA_44  and  C_45 
REMARK       I    between atoms: C_45  and  N_57 
REMARK   19  A    between atoms: CB_47  and  CG_48 
REMARK   20  A    between atoms: CZ_52  and  OH_53 
REMARK   21  A    between atoms: N_57  and  CA_58 
REMARK   22  A    between atoms: CA_58  and  CB_61 
REMARK   23  A    between atoms: CA_58  and  C_59 
REMARK       I    between atoms: C_59  and  N_74 
REMARK   24  A    between atoms: CB_61  and  CG_62 
REMARK   25  A    between atoms: CG_62  and  CD_63 
REMARK   26  A    between atoms: CD_63  and  NE_64 
REMARK       I    between atoms: NE_64  and  CZ_65 
REMARK       I    between atoms: CZ_65  and  NH2_66 
REMARK   27  A    between atoms: N_74  and  CA_75 
REMARK   28  A    between atoms: CA_75  and  CB_78 
REMARK   29  A    between atoms: CA_75  and  C_76 
REMARK       I    between atoms: C_76  and  N_85 
REMARK   30  A    between atoms: CB_78  and  CG_79 
REMARK       I    between atoms: CG_79  and  ND2_80 
REMARK   31  A    between atoms: N_85  and  CA_86 
REMARK   32  A    between atoms: CA_86  and  CB_89 
REMARK   33  A    between atoms: CA_86  and  C_87 
REMARK       I    between atoms: C_87  and  N_97 
REMARK   34  A    between atoms: CB_89  and  CG_90 
REMARK   35  A    between atoms: N_97  and  CA_98 
REMARK   36  A    between atoms: CA_98  and  C_99 
REMARK   37  A    between atoms: CA_98  and  CB_102 
REMARK   38  A    between atoms: CB_102  and  CG_103 
ROOT
ATOM      1  C   TYR A   5       9.865 -11.047 -15.856  1.00  0.00     0.241 C 
ATOM      2  O   TYR A   5       8.977 -11.534 -16.552  1.00  0.00    -0.271 OA
ATOM      3  N   ARG A   6      11.122 -10.921 -16.316  1.00  0.00    -0.346 N 
ATOM      4  H   ARG A   6      11.806 -10.494 -15.696  1.00  0.00     0.163 HD
ENDROOT
BRANCH   3   5
ATOM      5  CA  ARG A   6      11.544 -11.308 -17.681  1.00  0.00     0.176 C 
BRANCH   5   6
ATOM      6  CB  ARG A   6      11.975 -10.040 -18.447  1.00  0.00     0.036 C 
BRANCH   6   7
ATOM      7  CG  ARG A   6      10.969  -9.620 -19.543  1.00  0.00     0.023 C 
BRANCH   7   8
ATOM      8  CD  ARG A   6       9.867 -10.662 -19.794  1.00  0.00     0.138 C 
BRANCH   8   9
ATOM      9  NE  ARG A   6       8.562 -10.234 -19.244  1.00  0.00    -0.227 N 
ATOM     10  HE  ARG A   6       8.432 -10.391 -18.261  1.00  0.00     0.177 HD
ATOM     11  CZ  ARG A   6       7.596  -9.576 -19.864  1.00  0.00     0.665 C 
ATOM     12  NH2 ARG A   6       6.567  -9.168 -19.188  1.00  0.00    -0.235 N 
ATOM     13  NH1 ARG A   6       7.615  -9.291 -21.136  1.00  0.00    -0.235 N 
ATOM     14 1HH2 ARG A   6       6.661  -9.116 -18.192  1.00  0.00     0.174 HD
ATOM     15 2HH2 ARG A   6       6.029  -8.418 -19.590  1.00  0.00     0.174 HD
ATOM     16 1HH1 ARG A   6       8.477  -9.393 -21.639  1.00  0.00     0.174 HD
ATOM     17 2HH1 ARG A   6       6.878  -8.740 -21.536  1.00  0.00     0.174 HD
ENDBRANCH   8   9
ENDBRANCH   7   8
ENDBRANCH   6   7
ENDBRANCH   5   6
BRANCH   5  18
ATOM     18  C   ARG A   6      12.650 -12.386 -17.713  1.00  0.00     0.241 C 
ATOM     19  N   ASN A   7      12.994 -13.019 -16.583  1.00  0.00    -0.346 N 
ATOM     20  H   ASN A   7      12.444 -12.853 -15.750  1.00  0.00     0.163 HD
ATOM     21  O   ARG A   6      13.277 -12.552 -18.752  1.00  0.00    -0.271 OA
BRANCH  19  22
ATOM     22  CA  ASN A   7      13.972 -14.124 -16.572  1.00  0.00     0.185 C 
BRANCH  22  23
ATOM     23  CB  ASN A   7      15.388 -13.607 -16.254  1.00  0.00     0.137 C 
BRANCH  23  24
ATOM     24  CG  ASN A   7      15.527 -12.202 -15.704  1.00  0.00     0.217 C 
ATOM     25  ND2 ASN A   7      16.164 -11.358 -16.487  1.00  0.00    -0.370 N 
ATOM     26 2HD2 ASN A   7      16.698 -11.712 -17.279  1.00  0.00     0.159 HD
ATOM     27 1HD2 ASN A   7      16.217 -10.405 -16.199  1.00  0.00     0.159 HD
ATOM     28  OD1 ASN A   7      14.890 -11.781 -14.742  1.00  0.00    -0.274 OA
ENDBRANCH  23  24
ENDBRANCH  22  23
BRANCH  22  29
ATOM     29  C   ASN A   7      13.626 -15.243 -15.564  1.00  0.00     0.241 C 
ATOM     30  N   PHE A   8      12.559 -16.013 -15.827  1.00  0.00    -0.346 N 
ATOM     31  H   PHE A   8      11.997 -15.789 -16.641  1.00  0.00     0.163 HD
ATOM     32  O   ASN A   7      14.244 -15.307 -14.502  1.00  0.00    -0.271 OA
BRANCH  30  33
ATOM     33  CA  PHE A   8      12.160 -17.177 -15.021  1.00  0.00     0.180 C 
BRANCH  33  34
ATOM     34  CB  PHE A   8      11.410 -16.646 -13.781  1.00  0.00     0.073 C 
BRANCH  34  35
ATOM     35  CG  PHE A   8      12.112 -16.903 -12.459  1.00  0.00    -0.056 A 
ATOM     36  CD1 PHE A   8      12.945 -18.028 -12.306  1.00  0.00     0.007 A 
ATOM     37  CE1 PHE A   8      13.487 -18.336 -11.045  1.00  0.00     0.001 A 
ATOM     38  CZ  PHE A   8      13.199 -17.520  -9.937  1.00  0.00     0.000 A 
ATOM     39  CE2 PHE A   8      12.395 -16.378 -10.095  1.00  0.00     0.001 A 
ATOM     40  CD2 PHE A   8      11.858 -16.066 -11.356  1.00  0.00     0.007 A 
ENDBRANCH  34  35
ENDBRANCH  33  34
BRANCH  33  41
ATOM     41  C   PHE A   8      11.328 -18.211 -15.820  1.00  0.00     0.241 C 
ATOM     42  N   TRP A   9      10.010 -18.257 -15.566  1.00  0.00    -0.344 N 
ATOM     43  H   TRP A   9       9.650 -17.606 -14.885  1.00  0.00     0.163 HD
ATOM     44  O   PHE A   8      11.896 -18.971 -16.607  1.00  0.00    -0.271 OA
BRANCH  42  45
ATOM     45  CA  TRP A   9       9.030 -19.199 -16.135  1.00  0.00     0.190 C 
BRANCH  45  46
ATOM     46  C   TRP A   9       8.221 -18.655 -17.332  1.00  0.00     0.197 C 
ATOM     47  OXT TRP A   9       7.028 -19.041 -17.437  1.00  0.00    -0.646 OA
ATOM     48  O   TRP A   9       8.886 -18.201 -18.288  1.00  0.00    -0.646 OA
ENDBRANCH  45  46
BRANCH  45  49
ATOM     49  CB  TRP A   9       8.100 -19.638 -14.993  1.00  0.00     0.077 C 
BRANCH  49  50
ATOM     50  CG  TRP A   9       8.369 -18.955 -13.692  1.00  0.00    -0.028 A 
ATOM     51  CD1 TRP A   9       7.689 -17.875 -13.256  1.00  0.00     0.096 A 
ATOM     52  NE1 TRP A   9       8.054 -17.579 -11.960  1.00  0.00    -0.365 N 
ATOM     53  HE1 TRP A   9       7.526 -16.942 -11.390  1.00  0.00     0.165 HD
ATOM     54  CE2 TRP A   9       8.949 -18.505 -11.472  1.00  0.00     0.042 A 
ATOM     55  CD2 TRP A   9       9.174 -19.401 -12.559  1.00  0.00    -0.002 A 
ATOM     56  CZ2 TRP A   9       9.525 -18.689 -10.208  1.00  0.00     0.030 A 
ATOM     57  CE3 TRP A   9      10.010 -20.513 -12.307  1.00  0.00     0.014 A 
ATOM     58  CZ3 TRP A   9      10.580 -20.719 -11.035  1.00  0.00     0.001 A 
ATOM     59  CH2 TRP A   9      10.342 -19.810  -9.987  1.00  0.00     0.002 A 
ENDBRANCH  49  50
ENDBRANCH  45  49
ENDBRANCH  42  45
ENDBRANCH  33  41
ENDBRANCH  30  33
ENDBRANCH  22  29
ENDBRANCH  19  22
ENDBRANCH   5  18
ENDBRANCH   3   5
BRANCH   1  60
ATOM     60  CA  TYR A   5       9.603 -10.851 -14.352  1.00  0.00     0.180 C 
BRANCH  60  61
ATOM     61  N   TYR A   5      10.818 -10.469 -13.623  1.00  0.00    -0.346 N 
ATOM     62  H   TYR A   5      11.250  -9.583 -13.839  1.00  0.00     0.163 HD
ATOM     63  C   GLU A   4      11.433 -11.296 -12.761  1.00  0.00     0.241 C 
ATOM     64  O   GLU A   4      11.049 -12.452 -12.611  1.00  0.00    -0.271 OA
BRANCH  63  65
ATOM     65  CA  GLU A   4      12.807 -10.867 -12.226  1.00  0.00     0.177 C 
BRANCH  65  66
ATOM     66  N   GLU A   4      13.275  -9.635 -12.884  1.00  0.00    -0.346 N 
ATOM     67  H   GLU A   4      14.144  -9.697 -13.399  1.00  0.00     0.163 HD
ATOM     68  C   PRO A   3      12.818  -8.405 -12.625  1.00  0.00     0.241 C 
ATOM     69  O   PRO A   3      11.909  -8.187 -11.843  1.00  0.00    -0.271 OA
BRANCH  68  70
ATOM     70  CA  PRO A   3      13.452  -7.221 -13.368  1.00  0.00     0.179 C 
ATOM     71  N   PRO A   3      12.636  -6.597 -14.431  1.00  0.00    -0.337 N 
ATOM     72  CD  PRO A   3      12.568  -5.157 -14.190  1.00  0.00     0.127 C 
ATOM     73  C   ASP A   2      12.258  -7.258 -15.557  1.00  0.00     0.243 C 
ATOM     74  CG  PRO A   3      13.735  -4.845 -13.256  1.00  0.00     0.022 C 
ATOM     75  CB  PRO A   3      13.791  -6.093 -12.381  1.00  0.00     0.037 C 
ATOM     76  O   ASP A   2      12.423  -8.481 -15.596  1.00  0.00    -0.271 OA
BRANCH  73  77
ATOM     77  CA  ASP A   2      11.225  -6.652 -16.571  1.00  0.00     0.186 C 
BRANCH  77  78
ATOM     78  CB  ASP A   2      11.763  -5.499 -17.434  1.00  0.00     0.147 C 
BRANCH  78  79
ATOM     79  CG  ASP A   2      10.721  -4.406 -17.607  1.00  0.00     0.175 C 
ATOM     80  OD2 ASP A   2      10.844  -3.438 -16.820  1.00  0.00    -0.648 OA
ATOM     81  OD1 ASP A   2      10.093  -4.415 -18.673  1.00  0.00    -0.648 OA
ENDBRANCH  78  79
ENDBRANCH  77  78
BRANCH  77  82
ATOM     82  N   ASP A   2       9.910  -6.224 -16.031  1.00  0.00    -0.345 N 
ATOM     83  H   ASP A   2       9.927  -5.313 -15.599  1.00  0.00     0.163 HD
ATOM     84  C   TYR A   1       8.736  -6.753 -16.416  1.00  0.00     0.249 C 
ATOM     85  O   TYR A   1       8.670  -7.782 -17.046  1.00  0.00    -0.271 OA
BRANCH  84  86
ATOM     86  CA  TYR A   1       7.434  -6.301 -15.788  1.00  0.00     0.278 C 
BRANCH  86  87
ATOM     87  N   TYR A   1       7.438  -6.511 -14.331  1.00  0.00    -0.066 N 
ATOM     88  H2  TYR A   1       8.272  -6.114 -13.922  1.00  0.00     0.275 HD
ATOM     89  H1  TYR A   1       7.408  -7.503 -14.141  1.00  0.00     0.275 HD
ATOM     90  H3  TYR A   1       6.622  -6.066 -13.926  1.00  0.00     0.275 HD
ENDBRANCH  86  87
BRANCH  86  91
ATOM     91  CB  TYR A   1       6.972  -4.902 -16.193  1.00  0.00     0.081 C 
BRANCH  91  92
ATOM     92  CG  TYR A   1       6.458  -4.861 -17.621  1.00  0.00    -0.056 A 
ATOM     93  CD2 TYR A   1       6.763  -3.744 -18.434  1.00  0.00     0.010 A 
ATOM     94  CE2 TYR A   1       6.272  -3.676 -19.749  1.00  0.00     0.037 A 
ATOM     95  CZ  TYR A   1       5.483  -4.730 -20.264  1.00  0.00     0.065 A 
ATOM     96  CE1 TYR A   1       5.209  -5.858 -19.468  1.00  0.00     0.037 A 
ATOM     97  CD1 TYR A   1       5.696  -5.932 -18.143  1.00  0.00     0.010 A 
BRANCH  95  98
ATOM     98  OH  TYR A   1       4.991  -4.665 -21.523  1.00  0.00    -0.361 OA
ATOM     99  HH  TYR A   1       5.665  -4.855 -22.177  1.00  0.00     0.217 HD
ENDBRANCH  95  98
ENDBRANCH  91  92
ENDBRANCH  86  91
ENDBRANCH  84  86
ENDBRANCH  77  82
ENDBRANCH  73  77
ENDBRANCH  68  70
ENDBRANCH  65  66
BRANCH  65 100
ATOM    100  CB  GLU A   4      12.761 -10.638 -10.700  1.00  0.00     0.045 C 
BRANCH 100 101
ATOM    101  CG  GLU A   4      13.939 -11.225  -9.905  1.00  0.00     0.116 C 
BRANCH 101 102
ATOM    102  CD  GLU A   4      13.544 -12.519  -9.173  1.00  0.00     0.172 C 
ATOM    103  OE2 GLU A   4      14.487 -13.276  -8.851  1.00  0.00    -0.648 OA
ATOM    104  OE1 GLU A   4      12.345 -12.883  -9.267  1.00  0.00    -0.648 OA
ENDBRANCH 101 102
ENDBRANCH 100 101
ENDBRANCH  65 100
ENDBRANCH  63  65
ENDBRANCH  60  61
BRANCH  60 105
ATOM    105  CB  TYR A   5       8.477  -9.830 -14.098  1.00  0.00     0.073 C 
BRANCH 105 106
ATOM    106  CG  TYR A   5       7.242 -10.353 -13.373  1.00  0.00    -0.056 A 
ATOM    107  CD1 TYR A   5       6.229  -9.465 -12.938  1.00  0.00     0.010 A 
ATOM    108  CE1 TYR A   5       5.019  -9.978 -12.410  1.00  0.00     0.037 A 
ATOM    109  CZ  TYR A   5       4.830 -11.368 -12.308  1.00  0.00     0.065 A 
ATOM    110  CE2 TYR A   5       5.851 -12.254 -12.713  1.00  0.00     0.037 A 
ATOM    111  CD2 TYR A   5       7.049 -11.748 -13.251  1.00  0.00     0.010 A 
BRANCH 109 112
ATOM    112  OH  TYR A   5       3.664 -11.860 -11.829  1.00  0.00    -0.361 OA
ATOM    113  HH  TYR A   5       3.038 -11.955 -12.550  1.00  0.00     0.217 HD
ENDBRANCH 109 112
ENDBRANCH 105 106
ENDBRANCH  60 105
ENDBRANCH   1  60
TORSDOF 38
ENDMDL
MODEL 3
REMARK VINA RESULT:      -5.0      3.183      7.586
REMARK WARNING: 32 MAX_TORS EXCEEDED!!!
REMARK  38 active torsions:
REMARK  status: ('A' for Active; 'I' for Inactive)
REMARK    1  A    between atoms: N_1  and  CA_2 
REMARK    2  A    between atoms: CA_2  and  CB_5 
REMARK    3  A    between atoms: CA_2  and  C_3 
REMARK       I    between atoms: C_3  and  N_17 
REMARK    4  A    between atoms: CB_5  and  CG_6 
REMARK    5  A    between atoms: CZ_10  and  OH_11 
REMARK    6  A    between atoms: N_17  and  CA_18 
REMARK    7  A    between atoms: CA_18  and  CB_21 
REMARK    8  A    between atoms: CA_18  and  C_19 
REMARK       I    between atoms: C_19  and  N_26 
REMARK    9  A    between atoms: CB_21  and  CG_22 
REMARK   10  A    between atoms: CA_27  and  C_28 
REMARK       I    between atoms: C_28  and  N_33 
REMARK   11  A    between atoms: N_33  and  CA_34 
REMARK   12  A    between atoms: CA_34  and  C_35 
REMARK   13  A    between atoms: CA_34  and  CB_37 
REMARK       I    between atoms: C_35  and  N_43 
REMARK   14  A    between atoms: CB_37  and  CG_38 
REMARK   15  A    between atoms: CG_38  and  CD_39 
REMARK   16  A    between atoms: N_43  and  CA_44 
REMARK   17  A    between atoms: CA_44  and  CB_47 
REMARK   18  A    between atoms: CA_44  and  C_45 
REMARK       I    between atoms: C_45  and  N_57 
REMARK   19  A    between atoms: CB_47  and  CG_48 
REMARK   20  A    between atoms: CZ_52  and  OH_53 
REMARK   21  A    between atoms: N_57  and  CA_58 
REMARK   22  A    between atoms: CA_58  and  CB_61 
REMARK   23  A    between atoms: CA_58  and  C_59 
REMARK       I    between atoms: C_59  and  N_74 
REMARK   24  A    between atoms: CB_61  and  CG_62 
REMARK   25  A    between atoms: CG_62  and  CD_63 
REMARK   26  A    between atoms: CD_63  and  NE_64 
REMARK       I    between atoms: NE_64  and  CZ_65 
REMARK       I    between atoms: CZ_65  and  NH2_66 
REMARK   27  A    between atoms: N_74  and  CA_75 
REMARK   28  A    between atoms: CA_75  and  CB_78 
REMARK   29  A    between atoms: CA_75  and  C_76 
REMARK       I    between atoms: C_76  and  N_85 
REMARK   30  A    between atoms: CB_78  and  CG_79 
REMARK       I    between atoms: CG_79  and  ND2_80 
REMARK   31  A    between atoms: N_85  and  CA_86 
REMARK   32  A    between atoms: CA_86  and  CB_89 
REMARK   33  A    between atoms: CA_86  and  C_87 
REMARK       I    between atoms: C_87  and  N_97 
REMARK   34  A    between atoms: CB_89  and  CG_90 
REMARK   35  A    between atoms: N_97  and  CA_98 
REMARK   36  A    between atoms: CA_98  and  C_99 
REMARK   37  A    between atoms: CA_98  and  CB_102 
REMARK   38  A    between atoms: CB_102  and  CG_103 
ROOT
ATOM      1  C   TYR A   5      -6.534  -8.745  -7.616  1.00  0.00     0.241 C 
ATOM      2  O   TYR A   5      -5.538  -8.115  -7.269  1.00  0.00    -0.271 OA
ATOM      3  N   ARG A   6      -7.254  -9.456  -6.731  1.00  0.00    -0.346 N 
ATOM      4  H   ARG A   6      -8.078  -9.940  -7.080  1.00  0.00     0.163 HD
ENDROOT
BRANCH   3   5
ATOM      5  CA  ARG A   6      -6.953  -9.519  -5.284  1.00  0.00     0.176 C 
BRANCH   5   6
ATOM      6  CB  ARG A   6      -5.695 -10.387  -5.074  1.00  0.00     0.036 C 
BRANCH   6   7
ATOM      7  CG  ARG A   6      -5.904 -11.868  -5.465  1.00  0.00     0.023 C 
BRANCH   7   8
ATOM      8  CD  ARG A   6      -5.456 -12.191  -6.899  1.00  0.00     0.138 C 
BRANCH   8   9
ATOM      9  NE  ARG A   6      -4.617 -13.409  -6.957  1.00  0.00    -0.227 N 
ATOM     10  HE  ARG A   6      -4.310 -13.768  -6.071  1.00  0.00     0.177 HD
ATOM     11  CZ  ARG A   6      -4.316 -14.137  -8.021  1.00  0.00     0.665 C 
ATOM     12  NH2 ARG A   6      -3.670 -15.251  -7.868  1.00  0.00    -0.235 N 
ATOM     13  NH1 ARG A   6      -4.645 -13.811  -9.239  1.00  0.00    -0.235 N 
ATOM     14 1HH2 ARG A   6      -3.663 -15.659  -6.952  1.00  0.00     0.174 HD
ATOM     15 2HH2 ARG A   6      -3.739 -15.921  -8.615  1.00  0.00     0.174 HD
ATOM     16 1HH1 ARG A   6      -5.324 -13.083  -9.376  1.00  0.00     0.174 HD
ATOM     17 2HH1 ARG A   6      -4.436 -14.433  -9.997  1.00  0.00     0.174 HD
ENDBRANCH   8   9
ENDBRANCH   7   8
ENDBRANCH   6   7
ENDBRANCH   5   6
BRANCH   5  18
ATOM     18  C   ARG A   6      -6.797  -8.135  -4.615  1.00  0.00     0.241 C 
ATOM     19  N   ASN A   7      -7.857  -7.319  -4.524  1.00  0.00    -0.346 N 
ATOM     20  H   ASN A   7      -8.764  -7.673  -4.800  1.00  0.00     0.163 HD
ATOM     21  O   ARG A   6      -5.677  -7.762  -4.292  1.00  0.00    -0.271 OA
BRANCH  19  22
ATOM     22  CA  ASN A   7      -7.792  -6.029  -3.810  1.00  0.00     0.185 C 
BRANCH  22  23
ATOM     23  CB  ASN A   7      -8.161  -4.860  -4.743  1.00  0.00     0.137 C 
BRANCH  23  24
ATOM     24  CG  ASN A   7      -7.253  -4.575  -5.923  1.00  0.00     0.217 C 
ATOM     25  ND2 ASN A   7      -6.413  -3.577  -5.750  1.00  0.00    -0.370 N 
ATOM     26 2HD2 ASN A   7      -6.549  -2.936  -4.971  1.00  0.00     0.159 HD
ATOM     27 1HD2 ASN A   7      -5.748  -3.399  -6.471  1.00  0.00     0.159 HD
ATOM     28  OD1 ASN A   7      -7.101  -5.345  -6.866  1.00  0.00    -0.274 OA
ENDBRANCH  23  24
ENDBRANCH  22  23
BRANCH  22  29
ATOM     29  C   ASN A   7      -8.707  -5.966  -2.567  1.00  0.00     0.241 C 
ATOM     30  N   PHE A   8      -9.851  -6.666  -2.597  1.00  0.00    -0.346 N 
ATOM     31  H   PHE A   8     -10.090  -7.156  -3.452  1.00  0.00     0.163 HD
ATOM     32  O   ASN A   7      -8.432  -5.184  -1.658  1.00  0.00    -0.271 OA
BRANCH  30  33
ATOM     33  CA  PHE A   8     -10.776  -6.789  -1.459  1.00  0.00     0.180 C 
BRANCH  33  34
ATOM     34  CB  PHE A   8     -11.934  -5.797  -1.697  1.00  0.00     0.073 C 
BRANCH  34  35
ATOM     35  CG  PHE A   8     -12.231  -4.878  -0.525  1.00  0.00    -0.056 A 
ATOM     36  CD1 PHE A   8     -11.267  -3.946  -0.094  1.00  0.00     0.007 A 
ATOM     37  CE1 PHE A   8     -11.490  -3.190   1.072  1.00  0.00     0.001 A 
ATOM     38  CZ  PHE A   8     -12.677  -3.363   1.806  1.00  0.00     0.000 A 
ATOM     39  CE2 PHE A   8     -13.654  -4.269   1.358  1.00  0.00     0.001 A 
ATOM     40  CD2 PHE A   8     -13.434  -5.020   0.191  1.00  0.00     0.007 A 
ENDBRANCH  34  35
ENDBRANCH  33  34
BRANCH  33  41
ATOM     41  C   PHE A   8     -11.274  -8.239  -1.237  1.00  0.00     0.241 C 
ATOM     42  N   TRP A   9     -10.380  -9.224  -1.419  1.00  0.00    -0.344 N 
ATOM     43  H   TRP A   9      -9.443  -8.953  -1.673  1.00  0.00     0.163 HD
ATOM     44  O   PHE A   8     -12.458  -8.438  -0.955  1.00  0.00    -0.271 OA
BRANCH  42  45
ATOM     45  CA  TRP A   9     -10.631 -10.673  -1.344  1.00  0.00     0.190 C 
BRANCH  45  46
ATOM     46  C   TRP A   9     -10.394 -11.306   0.045  1.00  0.00     0.197 C 
ATOM     47  OXT TRP A   9     -10.914 -10.726   1.033  1.00  0.00    -0.646 OA
ATOM     48  O   TRP A   9      -9.424 -12.089   0.137  1.00  0.00    -0.646 OA
ENDBRANCH  45  46
BRANCH  45  49
ATOM     49  CB  TRP A   9      -9.758 -11.346  -2.414  1.00  0.00     0.077 C 
BRANCH  49  50
ATOM     50  CG  TRP A   9     -10.527 -12.163  -3.401  1.00  0.00    -0.028 A 
ATOM     51  CD1 TRP A   9     -10.161 -13.398  -3.800  1.00  0.00     0.096 A 
ATOM     52  NE1 TRP A   9     -11.151 -13.954  -4.582  1.00  0.00    -0.365 N 
ATOM     53  HE1 TRP A   9     -11.163 -14.932  -4.812  1.00  0.00     0.165 HD
ATOM     54  CE2 TRP A   9     -12.242 -13.118  -4.671  1.00  0.00     0.042 A 
ATOM     55  CD2 TRP A   9     -11.874 -11.958  -3.926  1.00  0.00    -0.002 A 
ATOM     56  CZ2 TRP A   9     -13.506 -13.270  -5.257  1.00  0.00     0.030 A 
ATOM     57  CE3 TRP A   9     -12.854 -10.950  -3.787  1.00  0.00     0.014 A 
ATOM     58  CZ3 TRP A   9     -14.135 -11.101  -4.355  1.00  0.00     0.001 A 
ATOM     59  CH2 TRP A   9     -14.462 -12.255  -5.090  1.00  0.00     0.002 A 
ENDBRANCH  49  50
ENDBRANCH  45  49
ENDBRANCH  42  45
ENDBRANCH  33  41
ENDBRANCH  30  33
ENDBRANCH  22  29
ENDBRANCH  19  22
ENDBRANCH   5  18
ENDBRANCH   3   5
BRANCH   1  60
ATOM     60  CA  TYR A   5      -6.790  -8.957  -9.119  1.00  0.00     0.180 C 
BRANCH  60  61
ATOM     61  N   TYR A   5      -7.886  -9.899  -9.368  1.00  0.00    -0.346 N 
ATOM     62  H   TYR A   5      -8.812  -9.656  -9.046  1.00  0.00     0.163 HD
ATOM     63  C   GLU A   4      -7.687 -11.113  -9.908  1.00  0.00     0.241 C 
ATOM     64  O   GLU A   4      -6.554 -11.524 -10.139  1.00  0.00    -0.271 OA
BRANCH  63  65
ATOM     65  CA  GLU A   4      -8.874 -12.087  -9.920  1.00  0.00     0.177 C 
BRANCH  65  66
ATOM     66  N   GLU A   4     -10.089 -11.455  -9.375  1.00  0.00    -0.346 N 
ATOM     67  H   GLU A   4     -10.339 -10.551  -9.754  1.00  0.00     0.163 HD
ATOM     68  C   PRO A   3     -10.709 -11.826  -8.250  1.00  0.00     0.241 C 
ATOM     69  O   PRO A   3     -10.354 -12.783  -7.582  1.00  0.00    -0.271 OA
BRANCH  68  70
ATOM     70  CA  PRO A   3     -11.938 -11.026  -7.797  1.00  0.00     0.179 C 
ATOM     71  N   PRO A   3     -11.913  -9.572  -8.067  1.00  0.00    -0.337 N 
ATOM     72  CD  PRO A   3     -13.138  -9.202  -8.772  1.00  0.00     0.127 C 
ATOM     73  C   ASP A   2     -11.005  -8.731  -7.504  1.00  0.00     0.243 C 
ATOM     74  CG  PRO A   3     -14.121 -10.340  -8.505  1.00  0.00     0.022 C 
ATOM     75  CB  PRO A   3     -13.204 -11.559  -8.484  1.00  0.00     0.037 C 
ATOM     76  O   ASP A   2     -10.041  -9.227  -6.915  1.00  0.00    -0.271 OA
BRANCH  73  77
ATOM     77  CA  ASP A   2     -10.862  -7.236  -7.959  1.00  0.00     0.186 C 
BRANCH  77  78
ATOM     78  CB  ASP A   2     -11.933  -6.283  -7.403  1.00  0.00     0.147 C 
BRANCH  78  79
ATOM     79  CG  ASP A   2     -11.432  -5.549  -6.170  1.00  0.00     0.175 C 
ATOM     80  OD2 ASP A   2     -11.394  -4.301  -6.284  1.00  0.00    -0.648 OA
ATOM     81  OD1 ASP A   2     -11.432  -6.194  -5.115  1.00  0.00    -0.648 OA
ENDBRANCH  78  79
ENDBRANCH  77  78
BRANCH  77  82
ATOM     82  N   ASP A   2     -10.751  -6.974  -9.417  1.00  0.00    -0.345 N 
ATOM     83  H   ASP A   2     -11.393  -7.516  -9.975  1.00  0.00     0.163 HD
ATOM     84  C   TYR A   1     -10.189  -5.869  -9.937  1.00  0.00     0.249 C 
ATOM     85  O   TYR A   1      -9.512  -5.119  -9.274  1.00  0.00    -0.271 OA
BRANCH  84  86
ATOM     86  CA  TYR A   1     -10.067  -5.689 -11.435  1.00  0.00     0.278 C 
BRANCH  86  87
ATOM     87  N   TYR A   1     -11.385  -5.504 -12.065  1.00  0.00    -0.066 N 
ATOM     88  H2  TYR A   1     -11.981  -6.296 -11.871  1.00  0.00     0.275 HD
ATOM     89  H1  TYR A   1     -11.263  -5.409 -13.063  1.00  0.00     0.275 HD
ATOM     90  H3  TYR A   1     -11.817  -4.662 -11.698  1.00  0.00     0.275 HD
ENDBRANCH  86  87
BRANCH  86  91
ATOM     91  CB  TYR A   1      -9.037  -4.653 -11.881  1.00  0.00     0.081 C 
BRANCH  91  92
ATOM     92  CG  TYR A   1      -8.083  -5.207 -12.925  1.00  0.00    -0.056 A 
ATOM     93  CD2 TYR A   1      -8.287  -6.514 -13.423  1.00  0.00     0.010 A 
ATOM     94  CE2 TYR A   1      -7.397  -7.053 -14.369  1.00  0.00     0.037 A 
ATOM     95  CZ  TYR A   1      -6.305  -6.284 -14.829  1.00  0.00     0.065 A 
ATOM     96  CE1 TYR A   1      -6.121  -4.969 -14.360  1.00  0.00     0.037 A 
ATOM     97  CD1 TYR A   1      -7.010  -4.422 -13.408  1.00  0.00     0.010 A 
BRANCH  95  98
ATOM     98  OH  TYR A   1      -5.434  -6.802 -15.726  1.00  0.00    -0.361 OA
ATOM     99  HH  TYR A   1      -5.869  -7.048 -16.543  1.00  0.00     0.217 HD
ENDBRANCH  95  98
ENDBRANCH  91  92
ENDBRANCH  86  91
ENDBRANCH  84  86
ENDBRANCH  77  82
ENDBRANCH  73  77
ENDBRANCH  68  70
ENDBRANCH  65  66
BRANCH  65 100
ATOM    100  CB  GLU A   4      -9.166 -12.589 -11.351  1.00  0.00     0.045 C 
BRANCH 100 101
ATOM    101  CG  GLU A   4      -8.923 -14.089 -11.590  1.00  0.00     0.116 C 
BRANCH 101 102
ATOM    102  CD  GLU A   4      -7.423 -14.412 -11.700  1.00  0.00     0.172 C 
ATOM    103  OE2 GLU A   4      -6.932 -14.352 -12.849  1.00  0.00    -0.648 OA
ATOM    104  OE1 GLU A   4      -6.902 -15.033 -10.739  1.00  0.00    -0.648 OA
ENDBRANCH 101 102
ENDBRANCH 100 101
ENDBRANCH  65 100
ENDBRANCH  63  65
ENDBRANCH  60  61
BRANCH  60 105
ATOM    105  CB  TYR A   5      -7.048  -7.623  -9.847  1.00  0.00     0.073 C 
BRANCH 105 106
ATOM    106  CG  TYR A   5      -5.880  -7.052 -10.645  1.00  0.00    -0.056 A 
ATOM    107  CD1 TYR A   5      -5.392  -5.750 -10.379  1.00  0.00     0.010 A 
ATOM    108  CE1 TYR A   5      -4.211  -5.296 -11.016  1.00  0.00     0.037 A 
ATOM    109  CZ  TYR A   5      -3.533  -6.134 -11.921  1.00  0.00     0.065 A 
ATOM    110  CE2 TYR A   5      -4.036  -7.420 -12.210  1.00  0.00     0.037 A 
ATOM    111  CD2 TYR A   5      -5.201  -7.881 -11.568  1.00  0.00     0.010 A 
BRANCH 109 112
ATOM    112  OH  TYR A   5      -2.390  -5.712 -12.509  1.00  0.00    -0.361 OA
ATOM    113  HH  TYR A   5      -1.855  -6.472 -12.748  1.00  0.00     0.217 HD
ENDBRANCH 109 112
ENDBRANCH 105 106
ENDBRANCH  60 105
ENDBRANCH   1  60
TORSDOF 38
ENDMDL
MODEL 4
REMARK VINA RESULT:      -4.9      4.079      9.379
REMARK WARNING: 32 MAX_TORS EXCEEDED!!!
REMARK  38 active torsions:
REMARK  status: ('A' for Active; 'I' for Inactive)
REMARK    1  A    between atoms: N_1  and  CA_2 
REMARK    2  A    between atoms: CA_2  and  CB_5 
REMARK    3  A    between atoms: CA_2  and  C_3 
REMARK       I    between atoms: C_3  and  N_17 
REMARK    4  A    between atoms: CB_5  and  CG_6 
REMARK    5  A    between atoms: CZ_10  and  OH_11 
REMARK    6  A    between atoms: N_17  and  CA_18 
REMARK    7  A    between atoms: CA_18  and  CB_21 
REMARK    8  A    between atoms: CA_18  and  C_19 
REMARK       I    between atoms: C_19  and  N_26 
REMARK    9  A    between atoms: CB_21  and  CG_22 
REMARK   10  A    between atoms: CA_27  and  C_28 
REMARK       I    between atoms: C_28  and  N_33 
REMARK   11  A    between atoms: N_33  and  CA_34 
REMARK   12  A    between atoms: CA_34  and  C_35 
REMARK   13  A    between atoms: CA_34  and  CB_37 
REMARK       I    between atoms: C_35  and  N_43 
REMARK   14  A    between atoms: CB_37  and  CG_38 
REMARK   15  A    between atoms: CG_38  and  CD_39 
REMARK   16  A    between atoms: N_43  and  CA_44 
REMARK   17  A    between atoms: CA_44  and  CB_47 
REMARK   18  A    between atoms: CA_44  and  C_45 
REMARK       I    between atoms: C_45  and  N_57 
REMARK   19  A    between atoms: CB_47  and  CG_48 
REMARK   20  A    between atoms: CZ_52  and  OH_53 
REMARK   21  A    between atoms: N_57  and  CA_58 
REMARK   22  A    between atoms: CA_58  and  CB_61 
REMARK   23  A    between atoms: CA_58  and  C_59 
REMARK       I    between atoms: C_59  and  N_74 
REMARK   24  A    between atoms: CB_61  and  CG_62 
REMARK   25  A    between atoms: CG_62  and  CD_63 
REMARK   26  A    between atoms: CD_63  and  NE_64 
REMARK       I    between atoms: NE_64  and  CZ_65 
REMARK       I    between atoms: CZ_65  and  NH2_66 
REMARK   27  A    between atoms: N_74  and  CA_75 
REMARK   28  A    between atoms: CA_75  and  CB_78 
REMARK   29  A    between atoms: CA_75  and  C_76 
REMARK       I    between atoms: C_76  and  N_85 
REMARK   30  A    between atoms: CB_78  and  CG_79 
REMARK       I    between atoms: CG_79  and  ND2_80 
REMARK   31  A    between atoms: N_85  and  CA_86 
REMARK   32  A    between atoms: CA_86  and  CB_89 
REMARK   33  A    between atoms: CA_86  and  C_87 
REMARK       I    between atoms: C_87  and  N_97 
REMARK   34  A    between atoms: CB_89  and  CG_90 
REMARK   35  A    between atoms: N_97  and  CA_98 
REMARK   36  A    between atoms: CA_98  and  C_99 
REMARK   37  A    between atoms: CA_98  and  CB_102 
REMARK   38  A    between atoms: CB_102  and  CG_103 
ROOT
ATOM      1  C   TYR A   5      -7.081  -8.007  -7.957  1.00  0.00     0.241 C 
ATOM      2  O   TYR A   5      -6.029  -7.402  -7.762  1.00  0.00    -0.271 OA
ATOM      3  N   ARG A   6      -7.538  -8.916  -7.077  1.00  0.00    -0.346 N 
ATOM      4  H   ARG A   6      -8.423  -9.368  -7.289  1.00  0.00     0.163 HD
ENDROOT
BRANCH   3   5
ATOM      5  CA  ARG A   6      -6.860  -9.242  -5.802  1.00  0.00     0.176 C 
BRANCH   5   6
ATOM      6  CB  ARG A   6      -5.478  -9.853  -6.114  1.00  0.00     0.036 C 
BRANCH   6   7
ATOM      7  CG  ARG A   6      -5.360 -11.337  -5.696  1.00  0.00     0.023 C 
BRANCH   7   8
ATOM      8  CD  ARG A   6      -5.716 -12.320  -6.823  1.00  0.00     0.138 C 
BRANCH   8   9
ATOM      9  NE  ARG A   6      -4.534 -13.072  -7.298  1.00  0.00    -0.227 N 
ATOM     10  HE  ARG A   6      -3.828 -12.527  -7.760  1.00  0.00     0.177 HD
ATOM     11  CZ  ARG A   6      -4.246 -14.347  -7.091  1.00  0.00     0.665 C 
ATOM     12  NH2 ARG A   6      -3.097 -14.811  -7.475  1.00  0.00    -0.235 N 
ATOM     13  NH1 ARG A   6      -5.052 -15.185  -6.503  1.00  0.00    -0.235 N 
ATOM     14 1HH2 ARG A   6      -2.369 -14.147  -7.656  1.00  0.00     0.174 HD
ATOM     15 2HH2 ARG A   6      -2.780 -15.658  -7.033  1.00  0.00     0.174 HD
ATOM     16 1HH1 ARG A   6      -5.844 -14.822  -6.004  1.00  0.00     0.174 HD
ATOM     17 2HH1 ARG A   6      -4.753 -16.126  -6.326  1.00  0.00     0.174 HD
ENDBRANCH   8   9
ENDBRANCH   7   8
ENDBRANCH   6   7
ENDBRANCH   5   6
BRANCH   5  18
ATOM     18  C   ARG A   6      -6.738  -8.045  -4.833  1.00  0.00     0.241 C 
ATOM     19  N   ASN A   7      -7.784  -7.225  -4.656  1.00  0.00    -0.346 N 
ATOM     20  H   ASN A   7      -8.669  -7.472  -5.081  1.00  0.00     0.163 HD
ATOM     21  O   ARG A   6      -5.646  -7.799  -4.339  1.00  0.00    -0.271 OA
BRANCH  19  22
ATOM     22  CA  ASN A   7      -7.758  -6.126  -3.671  1.00  0.00     0.185 C 
BRANCH  22  23
ATOM     23  CB  ASN A   7      -7.907  -4.758  -4.364  1.00  0.00     0.137 C 
BRANCH  23  24
ATOM     24  CG  ASN A   7      -7.805  -4.710  -5.876  1.00  0.00     0.217 C 
ATOM     25  ND2 ASN A   7      -6.596  -4.490  -6.345  1.00  0.00    -0.370 N 
ATOM     26 2HD2 ASN A   7      -5.866  -4.161  -5.718  1.00  0.00     0.159 HD
ATOM     27 1HD2 ASN A   7      -6.468  -4.521  -7.334  1.00  0.00     0.159 HD
ATOM     28  OD1 ASN A   7      -8.693  -5.097  -6.630  1.00  0.00    -0.274 OA
ENDBRANCH  23  24
ENDBRANCH  22  23
BRANCH  22  29
ATOM     29  C   ASN A   7      -8.854  -6.244  -2.589  1.00  0.00     0.241 C 
ATOM     30  N   PHE A   8      -9.913  -7.024  -2.852  1.00  0.00    -0.346 N 
ATOM     31  H   PHE A   8      -9.974  -7.454  -3.770  1.00  0.00     0.163 HD
ATOM     32  O   ASN A   7      -8.792  -5.526  -1.591  1.00  0.00    -0.271 OA
BRANCH  30  33
ATOM     33  CA  PHE A   8     -10.985  -7.318  -1.890  1.00  0.00     0.180 C 
BRANCH  33  34
ATOM     34  CB  PHE A   8     -12.244  -6.553  -2.353  1.00  0.00     0.073 C 
BRANCH  34  35
ATOM     35  CG  PHE A   8     -12.288  -5.094  -1.930  1.00  0.00    -0.056 A 
ATOM     36  CD1 PHE A   8     -12.150  -4.074  -2.891  1.00  0.00     0.007 A 
ATOM     37  CE1 PHE A   8     -12.058  -2.731  -2.483  1.00  0.00     0.001 A 
ATOM     38  CZ  PHE A   8     -12.108  -2.406  -1.116  1.00  0.00     0.000 A 
ATOM     39  CE2 PHE A   8     -12.279  -3.420  -0.158  1.00  0.00     0.001 A 
ATOM     40  CD2 PHE A   8     -12.377  -4.762  -0.565  1.00  0.00     0.007 A 
ENDBRANCH  34  35
ENDBRANCH  33  34
BRANCH  33  41
ATOM     41  C   PHE A   8     -11.245  -8.835  -1.714  1.00  0.00     0.241 C 
ATOM     42  N   TRP A   9     -10.212  -9.659  -1.948  1.00  0.00    -0.344 N 
ATOM     43  H   TRP A   9      -9.334  -9.235  -2.206  1.00  0.00     0.163 HD
ATOM     44  O   PHE A   8     -12.377  -9.228  -1.422  1.00  0.00    -0.271 OA
BRANCH  42  45
ATOM     45  CA  TRP A   9     -10.231 -11.132  -1.924  1.00  0.00     0.190 C 
BRANCH  45  46
ATOM     46  C   TRP A   9     -10.353 -11.761  -0.519  1.00  0.00     0.197 C 
ATOM     47  OXT TRP A   9      -9.332 -11.722   0.215  1.00  0.00    -0.646 OA
ATOM     48  O   TRP A   9     -11.289 -12.574  -0.357  1.00  0.00    -0.646 OA
ENDBRANCH  45  46
BRANCH  45  49
ATOM     49  CB  TRP A   9      -8.960 -11.619  -2.637  1.00  0.00     0.077 C 
BRANCH  49  50
ATOM     50  CG  TRP A   9      -9.189 -12.754  -3.581  1.00  0.00    -0.028 A 
ATOM     51  CD1 TRP A   9      -9.495 -14.007  -3.188  1.00  0.00     0.096 A 
ATOM     52  NE1 TRP A   9      -9.806 -14.783  -4.284  1.00  0.00    -0.365 N 
ATOM     53  HE1 TRP A   9     -10.249 -15.680  -4.193  1.00  0.00     0.165 HD
ATOM     54  CE2 TRP A   9      -9.778 -14.040  -5.443  1.00  0.00     0.042 A 
ATOM     55  CD2 TRP A   9      -9.384 -12.733  -5.028  1.00  0.00    -0.002 A 
ATOM     56  CZ2 TRP A   9     -10.108 -14.345  -6.771  1.00  0.00     0.030 A 
ATOM     57  CE3 TRP A   9      -9.346 -11.731  -6.024  1.00  0.00     0.014 A 
ATOM     58  CZ3 TRP A   9      -9.693 -12.021  -7.359  1.00  0.00     0.001 A 
ATOM     59  CH2 TRP A   9     -10.071 -13.324  -7.734  1.00  0.00     0.002 A 
ENDBRANCH  49  50
ENDBRANCH  45  49
ENDBRANCH  42  45
ENDBRANCH  33  41
ENDBRANCH  30  33
ENDBRANCH  22  29
ENDBRANCH  19  22
ENDBRANCH   5  18
ENDBRANCH   3   5
BRANCH   1  60
ATOM     60  CA  TYR A   5      -7.729  -7.937  -9.351  1.00  0.00     0.180 C 
BRANCH  60  61
ATOM     61  N   TYR A   5      -6.730  -7.831 -10.421  1.00  0.00    -0.346 N 
ATOM     62  H   TYR A   5      -6.168  -8.642 -10.636  1.00  0.00     0.163 HD
ATOM     63  C   GLU A   4      -6.463  -6.674 -11.049  1.00  0.00     0.241 C 
ATOM     64  O   GLU A   4      -6.988  -5.624 -10.690  1.00  0.00    -0.271 OA
BRANCH  63  65
ATOM     65  CA  GLU A   4      -5.254  -6.643 -11.996  1.00  0.00     0.177 C 
BRANCH  65  66
ATOM     66  N   GLU A   4      -5.634  -7.050 -13.360  1.00  0.00    -0.346 N 
ATOM     67  H   GLU A   4      -5.973  -6.321 -13.974  1.00  0.00     0.163 HD
ATOM     68  C   PRO A   3      -5.841  -8.311 -13.755  1.00  0.00     0.241 C 
ATOM     69  O   PRO A   3      -5.676  -9.271 -13.022  1.00  0.00    -0.271 OA
BRANCH  68  70
ATOM     70  CA  PRO A   3      -6.282  -8.557 -15.205  1.00  0.00     0.179 C 
ATOM     71  N   PRO A   3      -5.536  -9.591 -15.953  1.00  0.00    -0.337 N 
ATOM     72  CD  PRO A   3      -6.489 -10.539 -16.525  1.00  0.00     0.127 C 
ATOM     73  C   ASP A   2      -4.213  -9.481 -16.245  1.00  0.00     0.243 C 
ATOM     74  CG  PRO A   3      -7.833  -9.814 -16.527  1.00  0.00     0.022 C 
ATOM     75  CB  PRO A   3      -7.756  -8.988 -15.247  1.00  0.00     0.037 C 
ATOM     76  O   ASP A   2      -3.565  -8.592 -15.686  1.00  0.00    -0.271 OA
BRANCH  73  77
ATOM     77  CA  ASP A   2      -3.394 -10.674 -16.855  1.00  0.00     0.186 C 
BRANCH  77  78
ATOM     78  CB  ASP A   2      -3.252 -11.900 -15.937  1.00  0.00     0.147 C 
BRANCH  78  79
ATOM     79  CG  ASP A   2      -3.798 -13.153 -16.601  1.00  0.00     0.175 C 
ATOM     80  OD2 ASP A   2      -3.487 -13.283 -17.808  1.00  0.00    -0.648 OA
ATOM     81  OD1 ASP A   2      -4.190 -14.046 -15.840  1.00  0.00    -0.648 OA
ENDBRANCH  78  79
ENDBRANCH  77  78
BRANCH  77  82
ATOM     82  N   ASP A   2      -2.047 -10.369 -17.399  1.00  0.00    -0.345 N 
ATOM     83  H   ASP A   2      -1.292 -10.668 -16.800  1.00  0.00     0.163 HD
ATOM     84  C   TYR A   1      -1.804 -10.118 -18.697  1.00  0.00     0.249 C 
ATOM     85  O   TYR A   1      -2.690  -9.877 -19.482  1.00  0.00    -0.271 OA
BRANCH  84  86
ATOM     86  CA  TYR A   1      -0.410  -9.768 -19.174  1.00  0.00     0.278 C 
BRANCH  86  87
ATOM     87  N   TYR A   1       0.501  -9.526 -18.044  1.00  0.00    -0.066 N 
ATOM     88  H2  TYR A   1      -0.023  -9.408 -17.190  1.00  0.00     0.275 HD
ATOM     89  H1  TYR A   1       1.039  -8.690 -18.228  1.00  0.00     0.275 HD
ATOM     90  H3  TYR A   1       1.130 -10.315 -17.946  1.00  0.00     0.275 HD
ENDBRANCH  86  87
BRANCH  86  91
ATOM     91  CB  TYR A   1       0.171 -10.714 -20.224  1.00  0.00     0.081 C 
BRANCH  91  92
ATOM     92  CG  TYR A   1       0.617 -12.034 -19.620  1.00  0.00    -0.056 A 
ATOM     93  CD2 TYR A   1      -0.358 -12.976 -19.219  1.00  0.00     0.010 A 
ATOM     94  CE2 TYR A   1       0.038 -14.190 -18.631  1.00  0.00     0.037 A 
ATOM     95  CZ  TYR A   1       1.410 -14.474 -18.452  1.00  0.00     0.065 A 
ATOM     96  CE1 TYR A   1       2.383 -13.553 -18.884  1.00  0.00     0.037 A 
ATOM     97  CD1 TYR A   1       1.993 -12.328 -19.472  1.00  0.00     0.010 A 
BRANCH  95  98
ATOM     98  OH  TYR A   1       1.799 -15.633 -17.871  1.00  0.00    -0.361 OA
ATOM     99  HH  TYR A   1       2.587 -15.989 -18.282  1.00  0.00     0.217 HD
ENDBRANCH  95  98
ENDBRANCH  91  92
ENDBRANCH  86  91
ENDBRANCH  84  86
ENDBRANCH  77  82
ENDBRANCH  73  77
ENDBRANCH  68  70
ENDBRANCH  65  66
BRANCH  65 100
ATOM    100  CB  GLU A   4      -4.625  -5.233 -12.047  1.00  0.00     0.045 C 
BRANCH 100 101
ATOM    101  CG  GLU A   4      -3.398  -5.021 -11.145  1.00  0.00     0.116 C 
BRANCH 101 102
ATOM    102  CD  GLU A   4      -2.320  -4.174 -11.841  1.00  0.00     0.172 C 
ATOM    103  OE2 GLU A   4      -1.488  -4.805 -12.532  1.00  0.00    -0.648 OA
ATOM    104  OE1 GLU A   4      -2.137  -3.011 -11.402  1.00  0.00    -0.648 OA
ENDBRANCH 101 102
ENDBRANCH 100 101
ENDBRANCH  65 100
ENDBRANCH  63  65
ENDBRANCH  60  61
BRANCH  60 105
ATOM    105  CB  TYR A   5      -8.668  -9.131  -9.605  1.00  0.00     0.073 C 
BRANCH 105 106
ATOM    106  CG  TYR A   5      -8.101 -10.271 -10.444  1.00  0.00    -0.056 A 
ATOM    107  CD1 TYR A   5      -7.109 -11.132  -9.915  1.00  0.00     0.010 A 
ATOM    108  CE1 TYR A   5      -6.708 -12.278 -10.645  1.00  0.00     0.037 A 
ATOM    109  CZ  TYR A   5      -7.287 -12.553 -11.897  1.00  0.00     0.065 A 
ATOM    110  CE2 TYR A   5      -8.254 -11.679 -12.438  1.00  0.00     0.037 A 
ATOM    111  CD2 TYR A   5      -8.665 -10.546 -11.710  1.00  0.00     0.010 A 
BRANCH 109 112
ATOM    112  OH  TYR A   5      -6.925 -13.662 -12.583  1.00  0.00    -0.361 OA
ATOM    113  HH  TYR A   5      -6.931 -13.471 -13.523  1.00  0.00     0.217 HD
ENDBRANCH 109 112
ENDBRANCH 105 106
ENDBRANCH  60 105
ENDBRANCH   1  60
TORSDOF 38
ENDMDL
MODEL 5
REMARK VINA RESULT:      -4.8      3.251      6.987
REMARK WARNING: 32 MAX_TORS EXCEEDED!!!
REMARK  38 active torsions:
REMARK  status: ('A' for Active; 'I' for Inactive)
REMARK    1  A    between atoms: N_1  and  CA_2 
REMARK    2  A    between atoms: CA_2  and  CB_5 
REMARK    3  A    between atoms: CA_2  and  C_3 
REMARK       I    between atoms: C_3  and  N_17 
REMARK    4  A    between atoms: CB_5  and  CG_6 
REMARK    5  A    between atoms: CZ_10  and  OH_11 
REMARK    6  A    between atoms: N_17  and  CA_18 
REMARK    7  A    between atoms: CA_18  and  CB_21 
REMARK    8  A    between atoms: CA_18  and  C_19 
REMARK       I    between atoms: C_19  and  N_26 
REMARK    9  A    between atoms: CB_21  and  CG_22 
REMARK   10  A    between atoms: CA_27  and  C_28 
REMARK       I    between atoms: C_28  and  N_33 
REMARK   11  A    between atoms: N_33  and  CA_34 
REMARK   12  A    between atoms: CA_34  and  C_35 
REMARK   13  A    between atoms: CA_34  and  CB_37 
REMARK       I    between atoms: C_35  and  N_43 
REMARK   14  A    between atoms: CB_37  and  CG_38 
REMARK   15  A    between atoms: CG_38  and  CD_39 
REMARK   16  A    between atoms: N_43  and  CA_44 
REMARK   17  A    between atoms: CA_44  and  CB_47 
REMARK   18  A    between atoms: CA_44  and  C_45 
REMARK       I    between atoms: C_45  and  N_57 
REMARK   19  A    between atoms: CB_47  and  CG_48 
REMARK   20  A    between atoms: CZ_52  and  OH_53 
REMARK   21  A    between atoms: N_57  and  CA_58 
REMARK   22  A    between atoms: CA_58  and  CB_61 
REMARK   23  A    between atoms: CA_58  and  C_59 
REMARK       I    between atoms: C_59  and  N_74 
REMARK   24  A    between atoms: CB_61  and  CG_62 
REMARK   25  A    between atoms: CG_62  and  CD_63 
REMARK   26  A    between atoms: CD_63  and  NE_64 
REMARK       I    between atoms: NE_64  and  CZ_65 
REMARK       I    between atoms: CZ_65  and  NH2_66 
REMARK   27  A    between atoms: N_74  and  CA_75 
REMARK   28  A    between atoms: CA_75  and  CB_78 
REMARK   29  A    between atoms: CA_75  and  C_76 
REMARK       I    between atoms: C_76  and  N_85 
REMARK   30  A    between atoms: CB_78  and  CG_79 
REMARK       I    between atoms: CG_79  and  ND2_80 
REMARK   31  A    between atoms: N_85  and  CA_86 
REMARK   32  A    between atoms: CA_86  and  CB_89 
REMARK   33  A    between atoms: CA_86  and  C_87 
REMARK       I    between atoms: C_87  and  N_97 
REMARK   34  A    between atoms: CB_89  and  CG_90 
REMARK   35  A    between atoms: N_97  and  CA_98 
REMARK   36  A    between atoms: CA_98  and  C_99 
REMARK   37  A    between atoms: CA_98  and  CB_102 
REMARK   38  A    between atoms: CB_102  and  CG_103 
ROOT
ATOM      1  C   TYR A   5      -7.420  -9.174  -7.995  1.00  0.00     0.241 C 
ATOM      2  O   TYR A   5      -8.432  -8.532  -7.723  1.00  0.00    -0.271 OA
ATOM      3  N   ARG A   6      -6.679  -9.750  -7.033  1.00  0.00    -0.346 N 
ATOM      4  H   ARG A   6      -5.863 -10.282  -7.326  1.00  0.00     0.163 HD
ENDROOT
BRANCH   3   5
ATOM      5  CA  ARG A   6      -7.018  -9.707  -5.593  1.00  0.00     0.176 C 
BRANCH   5   6
ATOM      6  CB  ARG A   6      -6.216 -10.800  -4.858  1.00  0.00     0.036 C 
BRANCH   6   7
ATOM      7  CG  ARG A   6      -6.902 -12.185  -4.893  1.00  0.00     0.023 C 
BRANCH   7   8
ATOM      8  CD  ARG A   6      -6.635 -12.968  -6.188  1.00  0.00     0.138 C 
BRANCH   8   9
ATOM      9  NE  ARG A   6      -5.236 -13.442  -6.272  1.00  0.00    -0.227 N 
ATOM     10  HE  ARG A   6      -4.682 -13.313  -5.444  1.00  0.00     0.177 HD
ATOM     11  CZ  ARG A   6      -4.664 -14.111  -7.261  1.00  0.00     0.665 C 
ATOM     12  NH2 ARG A   6      -3.457 -14.561  -7.110  1.00  0.00    -0.235 N 
ATOM     13  NH1 ARG A   6      -5.249 -14.364  -8.397  1.00  0.00    -0.235 N 
ATOM     14 1HH2 ARG A   6      -3.105 -14.634  -6.175  1.00  0.00     0.174 HD
ATOM     15 2HH2 ARG A   6      -3.176 -15.315  -7.715  1.00  0.00     0.174 HD
ATOM     16 1HH1 ARG A   6      -6.241 -14.228  -8.469  1.00  0.00     0.174 HD
ATOM     17 2HH1 ARG A   6      -4.782 -14.924  -9.086  1.00  0.00     0.174 HD
ENDBRANCH   8   9
ENDBRANCH   7   8
ENDBRANCH   6   7
ENDBRANCH   5   6
BRANCH   5  18
ATOM     18  C   ARG A   6      -6.807  -8.322  -4.941  1.00  0.00     0.241 C 
ATOM     19  N   ASN A   7      -7.857  -7.508  -4.756  1.00  0.00    -0.346 N 
ATOM     20  H   ASN A   7      -8.784  -7.864  -4.950  1.00  0.00     0.163 HD
ATOM     21  O   ARG A   6      -5.664  -7.946  -4.719  1.00  0.00    -0.271 OA
BRANCH  19  22
ATOM     22  CA  ASN A   7      -7.731  -6.218  -4.051  1.00  0.00     0.185 C 
BRANCH  22  23
ATOM     23  CB  ASN A   7      -8.073  -5.041  -4.985  1.00  0.00     0.137 C 
BRANCH  23  24
ATOM     24  CG  ASN A   7      -7.074  -4.673  -6.064  1.00  0.00     0.217 C 
ATOM     25  ND2 ASN A   7      -6.376  -3.583  -5.828  1.00  0.00    -0.370 N 
ATOM     26 2HD2 ASN A   7      -6.670  -2.949  -5.088  1.00  0.00     0.159 HD
ATOM     27 1HD2 ASN A   7      -5.657  -3.342  -6.476  1.00  0.00     0.159 HD
ATOM     28  OD1 ASN A   7      -6.730  -5.437  -6.961  1.00  0.00    -0.274 OA
ENDBRANCH  23  24
ENDBRANCH  22  23
BRANCH  22  29
ATOM     29  C   ASN A   7      -8.622  -6.114  -2.793  1.00  0.00     0.241 C 
ATOM     30  N   PHE A   8      -9.794  -6.767  -2.801  1.00  0.00    -0.346 N 
ATOM     31  H   PHE A   8     -10.066  -7.250  -3.651  1.00  0.00     0.163 HD
ATOM     32  O   ASN A   7      -8.300  -5.341  -1.892  1.00  0.00    -0.271 OA
BRANCH  30  33
ATOM     33  CA  PHE A   8     -10.703  -6.849  -1.648  1.00  0.00     0.180 C 
BRANCH  33  34
ATOM     34  CB  PHE A   8     -11.850  -5.845  -1.892  1.00  0.00     0.073 C 
BRANCH  34  35
ATOM     35  CG  PHE A   8     -11.737  -4.552  -1.104  1.00  0.00    -0.056 A 
ATOM     36  CD1 PHE A   8     -11.069  -4.534   0.136  1.00  0.00     0.007 A 
ATOM     37  CE1 PHE A   8     -11.081  -3.369   0.925  1.00  0.00     0.001 A 
ATOM     38  CZ  PHE A   8     -11.757  -2.221   0.476  1.00  0.00     0.000 A 
ATOM     39  CE2 PHE A   8     -12.396  -2.228  -0.777  1.00  0.00     0.001 A 
ATOM     40  CD2 PHE A   8     -12.379  -3.389  -1.568  1.00  0.00     0.007 A 
ENDBRANCH  34  35
ENDBRANCH  33  34
BRANCH  33  41
ATOM     41  C   PHE A   8     -11.220  -8.286  -1.384  1.00  0.00     0.241 C 
ATOM     42  N   TRP A   9     -10.297  -9.255  -1.284  1.00  0.00    -0.344 N 
ATOM     43  H   TRP A   9      -9.331  -8.981  -1.371  1.00  0.00     0.163 HD
ATOM     44  O   PHE A   8     -12.434  -8.494  -1.325  1.00  0.00    -0.271 OA
BRANCH  42  45
ATOM     45  CA  TRP A   9     -10.542 -10.698  -1.114  1.00  0.00     0.190 C 
BRANCH  45  46
ATOM     46  C   TRP A   9     -10.509 -11.198   0.347  1.00  0.00     0.197 C 
ATOM     47  OXT TRP A   9     -10.963 -10.421   1.226  1.00  0.00    -0.646 OA
ATOM     48  O   TRP A   9      -9.715 -12.131   0.594  1.00  0.00    -0.646 OA
ENDBRANCH  45  46
BRANCH  45  49
ATOM     49  CB  TRP A   9      -9.511 -11.443  -1.976  1.00  0.00     0.077 C 
BRANCH  49  50
ATOM     50  CG  TRP A   9     -10.061 -11.973  -3.260  1.00  0.00    -0.028 A 
ATOM     51  CD1 TRP A   9     -10.416 -11.195  -4.302  1.00  0.00     0.096 A 
ATOM     52  NE1 TRP A   9     -10.729 -11.980  -5.391  1.00  0.00    -0.365 N 
ATOM     53  HE1 TRP A   9     -10.824 -11.596  -6.315  1.00  0.00     0.165 HD
ATOM     54  CE2 TRP A   9     -10.525 -13.315  -5.118  1.00  0.00     0.042 A 
ATOM     55  CD2 TRP A   9     -10.098 -13.345  -3.757  1.00  0.00    -0.002 A 
ATOM     56  CZ2 TRP A   9     -10.605 -14.467  -5.912  1.00  0.00     0.030 A 
ATOM     57  CE3 TRP A   9      -9.740 -14.606  -3.228  1.00  0.00     0.014 A 
ATOM     58  CZ3 TRP A   9      -9.799 -15.769  -4.022  1.00  0.00     0.001 A 
ATOM     59  CH2 TRP A   9     -10.232 -15.703  -5.360  1.00  0.00     0.002 A 
ENDBRANCH  49  50
ENDBRANCH  45  49
ENDBRANCH  42  45
ENDBRANCH  33  41
ENDBRANCH  30  33
ENDBRANCH  22  29
ENDBRANCH  19  22
ENDBRANCH   5  18
ENDBRANCH   3   5
BRANCH   1  60
ATOM     60  CA  TYR A   5      -6.838  -9.071  -9.416  1.00  0.00     0.180 C 
BRANCH  60  61
ATOM     61  N   TYR A   5      -7.493  -9.991 -10.352  1.00  0.00    -0.346 N 
ATOM     62  H   TYR A   5      -8.204  -9.625 -10.968  1.00  0.00     0.163 HD
ATOM     63  C   GLU A   4      -7.261 -11.315 -10.346  1.00  0.00     0.241 C 
ATOM     64  O   GLU A   4      -6.548 -11.827  -9.489  1.00  0.00    -0.271 OA
BRANCH  63  65
ATOM     65  CA  GLU A   4      -8.162 -12.196 -11.223  1.00  0.00     0.177 C 
BRANCH  65  66
ATOM     66  N   GLU A   4      -9.574 -12.087 -10.816  1.00  0.00    -0.346 N 
ATOM     67  H   GLU A   4     -10.010 -12.929 -10.461  1.00  0.00     0.163 HD
ATOM     68  C   PRO A   3     -10.390 -11.079 -11.138  1.00  0.00     0.241 C 
ATOM     69  O   PRO A   3     -10.021 -10.101 -11.766  1.00  0.00    -0.271 OA
BRANCH  68  70
ATOM     70  CA  PRO A   3     -11.852 -11.147 -10.672  1.00  0.00     0.179 C 
ATOM     71  N   PRO A   3     -12.248 -10.200  -9.607  1.00  0.00    -0.337 N 
ATOM     72  CD  PRO A   3     -13.436  -9.470 -10.044  1.00  0.00     0.127 C 
ATOM     73  C   ASP A   2     -11.719 -10.232  -8.355  1.00  0.00     0.243 C 
ATOM     74  CG  PRO A   3     -14.040 -10.310 -11.168  1.00  0.00     0.022 C 
ATOM     75  CB  PRO A   3     -12.799 -10.876 -11.850  1.00  0.00     0.037 C 
ATOM     76  O   ASP A   2     -10.725 -10.936  -8.162  1.00  0.00    -0.271 OA
BRANCH  73  77
ATOM     77  CA  ASP A   2     -11.996  -9.097  -7.307  1.00  0.00     0.186 C 
BRANCH  77  78
ATOM     78  CB  ASP A   2     -13.447  -9.019  -6.803  1.00  0.00     0.147 C 
BRANCH  78  79
ATOM     79  CG  ASP A   2     -13.602  -9.708  -5.457  1.00  0.00     0.175 C 
ATOM     80  OD2 ASP A   2     -13.712 -10.955  -5.518  1.00  0.00    -0.648 OA
ATOM     81  OD1 ASP A   2     -13.281  -9.043  -4.465  1.00  0.00    -0.648 OA
ENDBRANCH  78  79
ENDBRANCH  77  78
BRANCH  77  82
ATOM     82  N   ASP A   2     -11.577  -7.719  -7.666  1.00  0.00    -0.345 N 
ATOM     83  H   ASP A   2     -11.941  -7.405  -8.553  1.00  0.00     0.163 HD
ATOM     84  C   TYR A   1     -11.130  -6.817  -6.775  1.00  0.00     0.249 C 
ATOM     85  O   TYR A   1     -10.800  -7.129  -5.655  1.00  0.00    -0.271 OA
BRANCH  84  86
ATOM     86  CA  TYR A   1     -10.675  -5.443  -7.219  1.00  0.00     0.278 C 
BRANCH  86  87
ATOM     87  N   TYR A   1     -10.628  -5.340  -8.687  1.00  0.00    -0.066 N 
ATOM     88  H2  TYR A   1     -10.257  -4.443  -8.964  1.00  0.00     0.275 HD
ATOM     89  H1  TYR A   1     -11.563  -5.446  -9.055  1.00  0.00     0.275 HD
ATOM     90  H3  TYR A   1     -10.036  -6.076  -9.056  1.00  0.00     0.275 HD
ENDBRANCH  86  87
BRANCH  86  91
ATOM     91  CB  TYR A   1     -11.403  -4.275  -6.557  1.00  0.00     0.081 C 
BRANCH  91  92
ATOM     92  CG  TYR A   1     -12.881  -4.561  -6.358  1.00  0.00    -0.056 A 
ATOM     93  CD2 TYR A   1     -13.383  -4.722  -5.046  1.00  0.00     0.010 A 
ATOM     94  CE2 TYR A   1     -14.744  -5.016  -4.845  1.00  0.00     0.037 A 
ATOM     95  CZ  TYR A   1     -15.611  -5.139  -5.953  1.00  0.00     0.065 A 
ATOM     96  CE1 TYR A   1     -15.119  -4.942  -7.258  1.00  0.00     0.037 A 
ATOM     97  CD1 TYR A   1     -13.753  -4.650  -7.468  1.00  0.00     0.010 A 
BRANCH  95  98
ATOM     98  OH  TYR A   1     -16.918  -5.439  -5.770  1.00  0.00    -0.361 OA
ATOM     99  HH  TYR A   1     -17.029  -6.257  -5.284  1.00  0.00     0.217 HD
ENDBRANCH  95  98
ENDBRANCH  91  92
ENDBRANCH  86  91
ENDBRANCH  84  86
ENDBRANCH  77  82
ENDBRANCH  73  77
ENDBRANCH  68  70
ENDBRANCH  65  66
BRANCH  65 100
ATOM    100  CB  GLU A   4      -8.035 -11.810 -12.713  1.00  0.00     0.045 C 
BRANCH 100 101
ATOM    101  CG  GLU A   4      -6.679 -12.121 -13.366  1.00  0.00     0.116 C 
BRANCH 101 102
ATOM    102  CD  GLU A   4      -5.840 -10.848 -13.571  1.00  0.00     0.172 C 
ATOM    103  OE2 GLU A   4      -6.465  -9.765 -13.516  1.00  0.00    -0.648 OA
ATOM    104  OE1 GLU A   4      -4.714 -10.989 -14.110  1.00  0.00    -0.648 OA
ENDBRANCH 101 102
ENDBRANCH 100 101
ENDBRANCH  65 100
ENDBRANCH  63  65
ENDBRANCH  60  61
BRANCH  60 105
ATOM    105  CB  TYR A   5      -6.891  -7.627  -9.951  1.00  0.00     0.073 C 
BRANCH 105 106
ATOM    106  CG  TYR A   5      -5.601  -7.081 -10.554  1.00  0.00    -0.056 A 
ATOM    107  CD1 TYR A   5      -4.851  -7.853 -11.473  1.00  0.00     0.010 A 
ATOM    108  CE1 TYR A   5      -3.745  -7.274 -12.144  1.00  0.00     0.037 A 
ATOM    109  CZ  TYR A   5      -3.388  -5.938 -11.887  1.00  0.00     0.065 A 
ATOM    110  CE2 TYR A   5      -4.117  -5.177 -10.948  1.00  0.00     0.037 A 
ATOM    111  CD2 TYR A   5      -5.225  -5.744 -10.290  1.00  0.00     0.010 A 
BRANCH 109 112
ATOM    112  OH  TYR A   5      -2.350  -5.375 -12.546  1.00  0.00    -0.361 OA
ATOM    113  HH  TYR A   5      -1.743  -4.985 -11.913  1.00  0.00     0.217 HD
ENDBRANCH 109 112
ENDBRANCH 105 106
ENDBRANCH  60 105
ENDBRANCH   1  60
TORSDOF 38
ENDMDL
MODEL 6
REMARK VINA RESULT:      -4.8      2.924      6.666
REMARK WARNING: 32 MAX_TORS EXCEEDED!!!
REMARK  38 active torsions:
REMARK  status: ('A' for Active; 'I' for Inactive)
REMARK    1  A    between atoms: N_1  and  CA_2 
REMARK    2  A    between atoms: CA_2  and  CB_5 
REMARK    3  A    between atoms: CA_2  and  C_3 
REMARK       I    between atoms: C_3  and  N_17 
REMARK    4  A    between atoms: CB_5  and  CG_6 
REMARK    5  A    between atoms: CZ_10  and  OH_11 
REMARK    6  A    between atoms: N_17  and  CA_18 
REMARK    7  A    between atoms: CA_18  and  CB_21 
REMARK    8  A    between atoms: CA_18  and  C_19 
REMARK       I    between atoms: C_19  and  N_26 
REMARK    9  A    between atoms: CB_21  and  CG_22 
REMARK   10  A    between atoms: CA_27  and  C_28 
REMARK       I    between atoms: C_28  and  N_33 
REMARK   11  A    between atoms: N_33  and  CA_34 
REMARK   12  A    between atoms: CA_34  and  C_35 
REMARK   13  A    between atoms: CA_34  and  CB_37 
REMARK       I    between atoms: C_35  and  N_43 
REMARK   14  A    between atoms: CB_37  and  CG_38 
REMARK   15  A    between atoms: CG_38  and  CD_39 
REMARK   16  A    between atoms: N_43  and  CA_44 
REMARK   17  A    between atoms: CA_44  and  CB_47 
REMARK   18  A    between atoms: CA_44  and  C_45 
REMARK       I    between atoms: C_45  and  N_57 
REMARK   19  A    between atoms: CB_47  and  CG_48 
REMARK   20  A    between atoms: CZ_52  and  OH_53 
REMARK   21  A    between atoms: N_57  and  CA_58 
REMARK   22  A    between atoms: CA_58  and  CB_61 
REMARK   23  A    between atoms: CA_58  and  C_59 
REMARK       I    between atoms: C_59  and  N_74 
REMARK   24  A    between atoms: CB_61  and  CG_62 
REMARK   25  A    between atoms: CG_62  and  CD_63 
REMARK   26  A    between atoms: CD_63  and  NE_64 
REMARK       I    between atoms: NE_64  and  CZ_65 
REMARK       I    between atoms: CZ_65  and  NH2_66 
REMARK   27  A    between atoms: N_74  and  CA_75 
REMARK   28  A    between atoms: CA_75  and  CB_78 
REMARK   29  A    between atoms: CA_75  and  C_76 
REMARK       I    between atoms: C_76  and  N_85 
REMARK   30  A    between atoms: CB_78  and  CG_79 
REMARK       I    between atoms: CG_79  and  ND2_80 
REMARK   31  A    between atoms: N_85  and  CA_86 
REMARK   32  A    between atoms: CA_86  and  CB_89 
REMARK   33  A    between atoms: CA_86  and  C_87 
REMARK       I    between atoms: C_87  and  N_97 
REMARK   34  A    between atoms: CB_89  and  CG_90 
REMARK   35  A    between atoms: N_97  and  CA_98 
REMARK   36  A    between atoms: CA_98  and  C_99 
REMARK   37  A    between atoms: CA_98  and  CB_102 
REMARK   38  A    between atoms: CB_102  and  CG_103 
ROOT
ATOM      1  C   TYR A   5      -8.055 -13.570  -9.416  1.00  0.00     0.241 C 
ATOM      2  O   TYR A   5      -8.643 -12.509  -9.221  1.00  0.00    -0.271 OA
ATOM      3  N   ARG A   6      -8.434 -14.703  -8.798  1.00  0.00    -0.346 N 
ATOM      4  H   ARG A   6      -7.916 -15.550  -9.017  1.00  0.00     0.163 HD
ENDROOT
BRANCH   3   5
ATOM      5  CA  ARG A   6      -9.590 -14.793  -7.879  1.00  0.00     0.176 C 
BRANCH   5   6
ATOM      6  CB  ARG A   6     -10.192 -16.210  -7.974  1.00  0.00     0.036 C 
BRANCH   6   7
ATOM      7  CG  ARG A   6     -11.736 -16.211  -8.059  1.00  0.00     0.023 C 
BRANCH   7   8
ATOM      8  CD  ARG A   6     -12.332 -14.832  -8.389  1.00  0.00     0.138 C 
BRANCH   8   9
ATOM      9  NE  ARG A   6     -12.733 -14.095  -7.170  1.00  0.00    -0.227 N 
ATOM     10  HE  ARG A   6     -13.121 -14.654  -6.431  1.00  0.00     0.177 HD
ATOM     11  CZ  ARG A   6     -12.543 -12.814  -6.896  1.00  0.00     0.665 C 
ATOM     12  NH2 ARG A   6     -12.846 -12.363  -5.720  1.00  0.00    -0.235 N 
ATOM     13  NH1 ARG A   6     -12.046 -11.959  -7.745  1.00  0.00    -0.235 N 
ATOM     14 1HH2 ARG A   6     -12.949 -13.032  -4.981  1.00  0.00     0.174 HD
ATOM     15 2HH2 ARG A   6     -12.406 -11.503  -5.437  1.00  0.00     0.174 HD
ATOM     16 1HH1 ARG A   6     -11.601 -12.307  -8.575  1.00  0.00     0.174 HD
ATOM     17 2HH1 ARG A   6     -11.874 -11.013  -7.459  1.00  0.00     0.174 HD
ENDBRANCH   8   9
ENDBRANCH   7   8
ENDBRANCH   6   7
ENDBRANCH   5   6
BRANCH   5  18
ATOM     18  C   ARG A   6      -9.259 -14.421  -6.417  1.00  0.00     0.241 C 
ATOM     19  N   ASN A   7      -8.629 -15.307  -5.633  1.00  0.00    -0.346 N 
ATOM     20  H   ASN A   7      -8.286 -16.163  -6.050  1.00  0.00     0.163 HD
ATOM     21  O   ARG A   6      -9.691 -13.368  -5.967  1.00  0.00    -0.271 OA
BRANCH  19  22
ATOM     22  CA  ASN A   7      -8.201 -14.972  -4.261  1.00  0.00     0.185 C 
BRANCH  22  23
ATOM     23  CB  ASN A   7      -7.019 -13.984  -4.276  1.00  0.00     0.137 C 
BRANCH  23  24
ATOM     24  CG  ASN A   7      -5.999 -14.109  -5.390  1.00  0.00     0.217 C 
ATOM     25  ND2 ASN A   7      -5.356 -12.999  -5.683  1.00  0.00    -0.370 N 
ATOM     26 2HD2 ASN A   7      -5.702 -12.110  -5.329  1.00  0.00     0.159 HD
ATOM     27 1HD2 ASN A   7      -4.626 -13.049  -6.360  1.00  0.00     0.159 HD
ATOM     28  OD1 ASN A   7      -5.592 -15.183  -5.822  1.00  0.00    -0.274 OA
ENDBRANCH  23  24
ENDBRANCH  22  23
BRANCH  22  29
ATOM     29  C   ASN A   7      -9.328 -14.368  -3.394  1.00  0.00     0.241 C 
ATOM     30  N   PHE A   8      -9.152 -13.127  -2.915  1.00  0.00    -0.346 N 
ATOM     31  H   PHE A   8      -8.266 -12.666  -3.095  1.00  0.00     0.163 HD
ATOM     32  O   ASN A   7     -10.276 -15.079  -3.061  1.00  0.00    -0.271 OA
BRANCH  30  33
ATOM     33  CA  PHE A   8     -10.170 -12.378  -2.162  1.00  0.00     0.180 C 
BRANCH  33  34
ATOM     34  CB  PHE A   8      -9.522 -11.921  -0.838  1.00  0.00     0.073 C 
BRANCH  34  35
ATOM     35  CG  PHE A   8     -10.494 -11.746   0.316  1.00  0.00    -0.056 A 
ATOM     36  CD1 PHE A   8     -10.968 -12.870   1.019  1.00  0.00     0.007 A 
ATOM     37  CE1 PHE A   8     -11.968 -12.717   1.997  1.00  0.00     0.001 A 
ATOM     38  CZ  PHE A   8     -12.492 -11.442   2.275  1.00  0.00     0.000 A 
ATOM     39  CE2 PHE A   8     -11.996 -10.316   1.596  1.00  0.00     0.001 A 
ATOM     40  CD2 PHE A   8     -10.993 -10.466   0.623  1.00  0.00     0.007 A 
ENDBRANCH  34  35
ENDBRANCH  33  34
BRANCH  33  41
ATOM     41  C   PHE A   8     -10.774 -11.199  -2.965  1.00  0.00     0.241 C 
ATOM     42  N   TRP A   9      -9.909 -10.381  -3.586  1.00  0.00    -0.344 N 
ATOM     43  H   TRP A   9      -8.928 -10.599  -3.502  1.00  0.00     0.163 HD
ATOM     44  O   PHE A   8     -11.994 -11.026  -2.965  1.00  0.00    -0.271 OA
BRANCH  42  45
ATOM     45  CA  TRP A   9     -10.232  -9.158  -4.340  1.00  0.00     0.190 C 
BRANCH  45  46
ATOM     46  C   TRP A   9     -10.752  -9.392  -5.775  1.00  0.00     0.197 C 
ATOM     47  OXT TRP A   9     -11.996  -9.327  -5.949  1.00  0.00    -0.646 OA
ATOM     48  O   TRP A   9      -9.977  -9.990  -6.553  1.00  0.00    -0.646 OA
ENDBRANCH  45  46
BRANCH  45  49
ATOM     49  CB  TRP A   9      -8.973  -8.276  -4.346  1.00  0.00     0.077 C 
BRANCH  49  50
ATOM     50  CG  TRP A   9      -8.932  -7.268  -3.244  1.00  0.00    -0.028 A 
ATOM     51  CD1 TRP A   9      -8.068  -6.233  -3.205  1.00  0.00     0.096 A 
ATOM     52  NE1 TRP A   9      -8.384  -5.393  -2.159  1.00  0.00    -0.365 N 
ATOM     53  HE1 TRP A   9      -7.992  -4.472  -2.078  1.00  0.00     0.165 HD
ATOM     54  CE2 TRP A   9      -9.520  -5.818  -1.506  1.00  0.00     0.042 A 
ATOM     55  CD2 TRP A   9      -9.897  -7.019  -2.177  1.00  0.00    -0.002 A 
ATOM     56  CZ2 TRP A   9     -10.278  -5.261  -0.467  1.00  0.00     0.030 A 
ATOM     57  CE3 TRP A   9     -11.095  -7.639  -1.753  1.00  0.00     0.014 A 
ATOM     58  CZ3 TRP A   9     -11.875  -7.079  -0.721  1.00  0.00     0.001 A 
ATOM     59  CH2 TRP A   9     -11.470  -5.895  -0.078  1.00  0.00     0.002 A 
ENDBRANCH  49  50
ENDBRANCH  45  49
ENDBRANCH  42  45
ENDBRANCH  33  41
ENDBRANCH  30  33
ENDBRANCH  22  29
ENDBRANCH  19  22
ENDBRANCH   5  18
ENDBRANCH   3   5
BRANCH   1  60
ATOM     60  CA  TYR A   5      -6.698 -13.541 -10.143  1.00  0.00     0.180 C 
BRANCH  60  61
ATOM     61  N   TYR A   5      -6.672 -12.556 -11.229  1.00  0.00    -0.346 N 
ATOM     62  H   TYR A   5      -7.340 -11.798 -11.208  1.00  0.00     0.163 HD
ATOM     63  C   GLU A   4      -5.870 -12.681 -12.300  1.00  0.00     0.241 C 
ATOM     64  O   GLU A   4      -5.180 -13.683 -12.458  1.00  0.00    -0.271 OA
BRANCH  63  65
ATOM     65  CA  GLU A   4      -6.087 -11.705 -13.466  1.00  0.00     0.177 C 
BRANCH  65  66
ATOM     66  N   GLU A   4      -5.913 -10.308 -13.031  1.00  0.00    -0.346 N 
ATOM     67  H   GLU A   4      -5.017 -10.066 -12.626  1.00  0.00     0.163 HD
ATOM     68  C   PRO A   3      -6.904  -9.427 -12.862  1.00  0.00     0.241 C 
ATOM     69  O   PRO A   3      -8.070  -9.685 -13.111  1.00  0.00    -0.271 OA
BRANCH  68  70
ATOM     70  CA  PRO A   3      -6.552  -8.022 -12.354  1.00  0.00     0.179 C 
ATOM     71  N   PRO A   3      -6.198  -7.908 -10.923  1.00  0.00    -0.337 N 
ATOM     72  CD  PRO A   3      -4.917  -7.216 -10.807  1.00  0.00     0.127 C 
ATOM     73  C   ASP A   2      -7.074  -8.184  -9.921  1.00  0.00     0.243 C 
ATOM     74  CG  PRO A   3      -4.727  -6.487 -12.137  1.00  0.00     0.022 C 
ATOM     75  CB  PRO A   3      -5.351  -7.461 -13.131  1.00  0.00     0.037 C 
ATOM     76  O   ASP A   2      -8.132  -8.749 -10.212  1.00  0.00    -0.271 OA
BRANCH  73  77
ATOM     77  CA  ASP A   2      -6.624  -8.258  -8.420  1.00  0.00     0.186 C 
BRANCH  77  78
ATOM     78  CB  ASP A   2      -6.720  -9.653  -7.781  1.00  0.00     0.147 C 
BRANCH  78  79
ATOM     79  CG  ASP A   2      -6.236  -9.636  -6.341  1.00  0.00     0.175 C 
ATOM     80  OD2 ASP A   2      -6.722 -10.536  -5.615  1.00  0.00    -0.648 OA
ATOM     81  OD1 ASP A   2      -5.209  -8.984  -6.119  1.00  0.00    -0.648 OA
ENDBRANCH  78  79
ENDBRANCH  77  78
BRANCH  77  82
ATOM     82  N   ASP A   2      -7.241  -7.294  -7.473  1.00  0.00    -0.345 N 
ATOM     83  H   ASP A   2      -7.650  -7.732  -6.661  1.00  0.00     0.163 HD
ATOM     84  C   TYR A   1      -6.948  -5.983  -7.444  1.00  0.00     0.249 C 
ATOM     85  O   TYR A   1      -6.347  -5.438  -8.340  1.00  0.00    -0.271 OA
BRANCH  84  86
ATOM     86  CA  TYR A   1      -7.651  -5.049  -6.482  1.00  0.00     0.278 C 
BRANCH  86  87
ATOM     87  N   TYR A   1      -6.731  -4.032  -5.949  1.00  0.00    -0.066 N 
ATOM     88  H2  TYR A   1      -7.247  -3.226  -5.628  1.00  0.00     0.275 HD
ATOM     89  H1  TYR A   1      -6.089  -3.753  -6.679  1.00  0.00     0.275 HD
ATOM     90  H3  TYR A   1      -6.208  -4.426  -5.175  1.00  0.00     0.275 HD
ENDBRANCH  86  87
BRANCH  86  91
ATOM     91  CB  TYR A   1      -8.965  -4.462  -6.995  1.00  0.00     0.081 C 
BRANCH  91  92
ATOM     92  CG  TYR A   1     -10.095  -4.624  -5.993  1.00  0.00    -0.056 A 
ATOM     93  CD2 TYR A   1     -10.254  -3.663  -4.969  1.00  0.00     0.010 A 
ATOM     94  CE2 TYR A   1     -11.276  -3.814  -4.015  1.00  0.00     0.037 A 
ATOM     95  CZ  TYR A   1     -12.152  -4.920  -4.089  1.00  0.00     0.065 A 
ATOM     96  CE1 TYR A   1     -12.017  -5.858  -5.130  1.00  0.00     0.037 A 
ATOM     97  CD1 TYR A   1     -10.990  -5.715  -6.089  1.00  0.00     0.010 A 
BRANCH  95  98
ATOM     98  OH  TYR A   1     -13.128  -5.082  -3.165  1.00  0.00    -0.361 OA
ATOM     99  HH  TYR A   1     -13.905  -5.500  -3.539  1.00  0.00     0.217 HD
ENDBRANCH  95  98
ENDBRANCH  91  92
ENDBRANCH  86  91
ENDBRANCH  84  86
ENDBRANCH  77  82
ENDBRANCH  73  77
ENDBRANCH  68  70
ENDBRANCH  65  66
BRANCH  65 100
ATOM    100  CB  GLU A   4      -5.108 -11.999 -14.624  1.00  0.00     0.045 C 
BRANCH 100 101
ATOM    101  CG  GLU A   4      -4.546 -10.764 -15.347  1.00  0.00     0.116 C 
BRANCH 101 102
ATOM    102  CD  GLU A   4      -3.533 -11.154 -16.436  1.00  0.00     0.172 C 
ATOM    103  OE2 GLU A   4      -2.788 -10.235 -16.845  1.00  0.00    -0.648 OA
ATOM    104  OE1 GLU A   4      -3.754 -12.219 -17.065  1.00  0.00    -0.648 OA
ENDBRANCH 101 102
ENDBRANCH 100 101
ENDBRANCH  65 100
ENDBRANCH  63  65
ENDBRANCH  60  61
BRANCH  60 105
ATOM    105  CB  TYR A   5      -5.532 -13.300  -9.165  1.00  0.00     0.073 C 
BRANCH 105 106
ATOM    106  CG  TYR A   5      -4.517 -14.430  -9.032  1.00  0.00    -0.056 A 
ATOM    107  CD1 TYR A   5      -4.764 -15.696  -9.616  1.00  0.00     0.010 A 
ATOM    108  CE1 TYR A   5      -3.748 -16.682  -9.620  1.00  0.00     0.037 A 
ATOM    109  CZ  TYR A   5      -2.498 -16.407  -9.034  1.00  0.00     0.065 A 
ATOM    110  CE2 TYR A   5      -2.261 -15.156  -8.425  1.00  0.00     0.037 A 
ATOM    111  CD2 TYR A   5      -3.264 -14.168  -8.431  1.00  0.00     0.010 A 
BRANCH 109 112
ATOM    112  OH  TYR A   5      -1.517 -17.337  -9.062  1.00  0.00    -0.361 OA
ATOM    113  HH  TYR A   5      -1.575 -17.886  -8.276  1.00  0.00     0.217 HD
ENDBRANCH 109 112
ENDBRANCH 105 106
ENDBRANCH  60 105
ENDBRANCH   1  60
TORSDOF 38
ENDMDL
MODEL 7
REMARK VINA RESULT:      -4.8      4.749      9.797
REMARK WARNING: 32 MAX_TORS EXCEEDED!!!
REMARK  38 active torsions:
REMARK  status: ('A' for Active; 'I' for Inactive)
REMARK    1  A    between atoms: N_1  and  CA_2 
REMARK    2  A    between atoms: CA_2  and  CB_5 
REMARK    3  A    between atoms: CA_2  and  C_3 
REMARK       I    between atoms: C_3  and  N_17 
REMARK    4  A    between atoms: CB_5  and  CG_6 
REMARK    5  A    between atoms: CZ_10  and  OH_11 
REMARK    6  A    between atoms: N_17  and  CA_18 
REMARK    7  A    between atoms: CA_18  and  CB_21 
REMARK    8  A    between atoms: CA_18  and  C_19 
REMARK       I    between atoms: C_19  and  N_26 
REMARK    9  A    between atoms: CB_21  and  CG_22 
REMARK   10  A    between atoms: CA_27  and  C_28 
REMARK       I    between atoms: C_28  and  N_33 
REMARK   11  A    between atoms: N_33  and  CA_34 
REMARK   12  A    between atoms: CA_34  and  C_35 
REMARK   13  A    between atoms: CA_34  and  CB_37 
REMARK       I    between atoms: C_35  and  N_43 
REMARK   14  A    between atoms: CB_37  and  CG_38 
REMARK   15  A    between atoms: CG_38  and  CD_39 
REMARK   16  A    between atoms: N_43  and  CA_44 
REMARK   17  A    between atoms: CA_44  and  CB_47 
REMARK   18  A    between atoms: CA_44  and  C_45 
REMARK       I    between atoms: C_45  and  N_57 
REMARK   19  A    between atoms: CB_47  and  CG_48 
REMARK   20  A    between atoms: CZ_52  and  OH_53 
REMARK   21  A    between atoms: N_57  and  CA_58 
REMARK   22  A    between atoms: CA_58  and  CB_61 
REMARK   23  A    between atoms: CA_58  and  C_59 
REMARK       I    between atoms: C_59  and  N_74 
REMARK   24  A    between atoms: CB_61  and  CG_62 
REMARK   25  A    between atoms: CG_62  and  CD_63 
REMARK   26  A    between atoms: CD_63  and  NE_64 
REMARK       I    between atoms: NE_64  and  CZ_65 
REMARK       I    between atoms: CZ_65  and  NH2_66 
REMARK   27  A    between atoms: N_74  and  CA_75 
REMARK   28  A    between atoms: CA_75  and  CB_78 
REMARK   29  A    between atoms: CA_75  and  C_76 
REMARK       I    between atoms: C_76  and  N_85 
REMARK   30  A    between atoms: CB_78  and  CG_79 
REMARK       I    between atoms: CG_79  and  ND2_80 
REMARK   31  A    between atoms: N_85  and  CA_86 
REMARK   32  A    between atoms: CA_86  and  CB_89 
REMARK   33  A    between atoms: CA_86  and  C_87 
REMARK       I    between atoms: C_87  and  N_97 
REMARK   34  A    between atoms: CB_89  and  CG_90 
REMARK   35  A    between atoms: N_97  and  CA_98 
REMARK   36  A    between atoms: CA_98  and  C_99 
REMARK   37  A    between atoms: CA_98  and  CB_102 
REMARK   38  A    between atoms: CB_102  and  CG_103 
ROOT
ATOM      1  C   TYR A   5      -9.309  -0.744 -10.663  1.00  0.00     0.241 C 
ATOM      2  O   TYR A   5     -10.270  -0.500 -11.388  1.00  0.00    -0.271 OA
ATOM      3  N   ARG A   6      -8.303  -1.533 -11.080  1.00  0.00    -0.346 N 
ATOM      4  H   ARG A   6      -7.528  -1.681 -10.438  1.00  0.00     0.163 HD
ENDROOT
BRANCH   3   5
ATOM      5  CA  ARG A   6      -8.233  -2.138 -12.429  1.00  0.00     0.176 C 
BRANCH   5   6
ATOM      6  CB  ARG A   6      -7.601  -1.119 -13.399  1.00  0.00     0.036 C 
BRANCH   6   7
ATOM      7  CG  ARG A   6      -6.283  -0.510 -12.869  1.00  0.00     0.023 C 
BRANCH   7   8
ATOM      8  CD  ARG A   6      -5.195  -0.372 -13.947  1.00  0.00     0.138 C 
BRANCH   8   9
ATOM      9  NE  ARG A   6      -3.967  -1.118 -13.596  1.00  0.00    -0.227 N 
ATOM     10  HE  ARG A   6      -3.315  -0.630 -13.008  1.00  0.00     0.177 HD
ATOM     11  CZ  ARG A   6      -3.678  -2.380 -13.870  1.00  0.00     0.665 C 
ATOM     12  NH2 ARG A   6      -2.605  -2.910 -13.371  1.00  0.00    -0.235 N 
ATOM     13  NH1 ARG A   6      -4.422  -3.148 -14.613  1.00  0.00    -0.235 N 
ATOM     14 1HH2 ARG A   6      -2.184  -2.450 -12.586  1.00  0.00     0.174 HD
ATOM     15 2HH2 ARG A   6      -2.577  -3.915 -13.321  1.00  0.00     0.174 HD
ATOM     16 1HH1 ARG A   6      -5.355  -2.848 -14.833  1.00  0.00     0.174 HD
ATOM     17 2HH1 ARG A   6      -4.177  -4.113 -14.738  1.00  0.00     0.174 HD
ENDBRANCH   8   9
ENDBRANCH   7   8
ENDBRANCH   6   7
ENDBRANCH   5   6
BRANCH   5  18
ATOM     18  C   ARG A   6      -7.488  -3.490 -12.472  1.00  0.00     0.241 C 
ATOM     19  N   ASN A   7      -7.198  -4.125 -11.327  1.00  0.00    -0.346 N 
ATOM     20  H   ASN A   7      -7.571  -3.756 -10.462  1.00  0.00     0.163 HD
ATOM     21  O   ARG A   6      -7.067  -3.894 -13.548  1.00  0.00    -0.271 OA
BRANCH  19  22
ATOM     22  CA  ASN A   7      -6.577  -5.464 -11.311  1.00  0.00     0.185 C 
BRANCH  22  23
ATOM     23  CB  ASN A   7      -5.123  -5.394 -10.807  1.00  0.00     0.137 C 
BRANCH  23  24
ATOM     24  CG  ASN A   7      -4.015  -5.780 -11.766  1.00  0.00     0.217 C 
ATOM     25  ND2 ASN A   7      -4.422  -6.279 -12.913  1.00  0.00    -0.370 N 
ATOM     26 2HD2 ASN A   7      -5.391  -6.574 -13.018  1.00  0.00     0.159 HD
ATOM     27 1HD2 ASN A   7      -3.732  -6.481 -13.604  1.00  0.00     0.159 HD
ATOM     28  OD1 ASN A   7      -2.845  -5.432 -11.631  1.00  0.00    -0.274 OA
ENDBRANCH  23  24
ENDBRANCH  22  23
BRANCH  22  29
ATOM     29  C   ASN A   7      -7.343  -6.488 -10.445  1.00  0.00     0.241 C 
ATOM     30  N   PHE A   8      -6.827  -7.722 -10.332  1.00  0.00    -0.346 N 
ATOM     31  H   PHE A   8      -5.993  -7.942 -10.864  1.00  0.00     0.163 HD
ATOM     32  O   ASN A   7      -8.452  -6.190 -10.003  1.00  0.00    -0.271 OA
BRANCH  30  33
ATOM     33  CA  PHE A   8      -7.382  -8.774  -9.466  1.00  0.00     0.180 C 
BRANCH  33  34
ATOM     34  CB  PHE A   8      -7.232  -8.297  -8.006  1.00  0.00     0.073 C 
BRANCH  34  35
ATOM     35  CG  PHE A   8      -6.645  -9.331  -7.060  1.00  0.00    -0.056 A 
ATOM     36  CD1 PHE A   8      -6.001  -8.922  -5.876  1.00  0.00     0.007 A 
ATOM     37  CE1 PHE A   8      -5.343  -9.869  -5.070  1.00  0.00     0.001 A 
ATOM     38  CZ  PHE A   8      -5.330 -11.225  -5.444  1.00  0.00     0.000 A 
ATOM     39  CE2 PHE A   8      -6.001 -11.638  -6.609  1.00  0.00     0.001 A 
ATOM     40  CD2 PHE A   8      -6.663 -10.694  -7.411  1.00  0.00     0.007 A 
ENDBRANCH  34  35
ENDBRANCH  33  34
BRANCH  33  41
ATOM     41  C   PHE A   8      -8.843  -9.145  -9.822  1.00  0.00     0.241 C 
ATOM     42  N   TRP A   9      -9.800  -8.712  -8.987  1.00  0.00    -0.344 N 
ATOM     43  H   TRP A   9      -9.505  -8.162  -8.195  1.00  0.00     0.163 HD
ATOM     44  O   PHE A   8      -9.068  -9.851 -10.808  1.00  0.00    -0.271 OA
BRANCH  42  45
ATOM     45  CA  TRP A   9     -11.243  -8.999  -9.068  1.00  0.00     0.190 C 
BRANCH  45  46
ATOM     46  C   TRP A   9     -12.081  -7.933  -9.807  1.00  0.00     0.197 C 
ATOM     47  OXT TRP A   9     -12.785  -8.330 -10.772  1.00  0.00    -0.646 OA
ATOM     48  O   TRP A   9     -11.721  -6.746  -9.657  1.00  0.00    -0.646 OA
ENDBRANCH  45  46
BRANCH  45  49
ATOM     49  CB  TRP A   9     -11.751  -9.203  -7.632  1.00  0.00     0.077 C 
BRANCH  49  50
ATOM     50  CG  TRP A   9     -11.188 -10.409  -6.952  1.00  0.00    -0.028 A 
ATOM     51  CD1 TRP A   9     -11.205 -11.647  -7.487  1.00  0.00     0.096 A 
ATOM     52  NE1 TRP A   9     -10.470 -12.509  -6.701  1.00  0.00    -0.365 N 
ATOM     53  HE1 TRP A   9     -10.194 -13.420  -7.024  1.00  0.00     0.165 HD
ATOM     54  CE2 TRP A   9      -9.884 -11.844  -5.646  1.00  0.00     0.042 A 
ATOM     55  CD2 TRP A   9     -10.327 -10.494  -5.777  1.00  0.00    -0.002 A 
ATOM     56  CZ2 TRP A   9      -8.987 -12.253  -4.651  1.00  0.00     0.030 A 
ATOM     57  CE3 TRP A   9      -9.808  -9.560  -4.852  1.00  0.00     0.014 A 
ATOM     58  CZ3 TRP A   9      -8.890  -9.955  -3.859  1.00  0.00     0.001 A 
ATOM     59  CH2 TRP A   9      -8.481 -11.298  -3.755  1.00  0.00     0.002 A 
ENDBRANCH  49  50
ENDBRANCH  45  49
ENDBRANCH  42  45
ENDBRANCH  33  41
ENDBRANCH  30  33
ENDBRANCH  22  29
ENDBRANCH  19  22
ENDBRANCH   5  18
ENDBRANCH   3   5
BRANCH   1  60
ATOM     60  CA  TYR A   5      -9.398  -0.384  -9.170  1.00  0.00     0.180 C 
BRANCH  60  61
ATOM     61  N   TYR A   5      -9.839  -1.518  -8.350  1.00  0.00    -0.346 N 
ATOM     62  H   TYR A   5      -9.276  -2.357  -8.347  1.00  0.00     0.163 HD
ATOM     63  C   GLU A   4     -11.011  -1.523  -7.694  1.00  0.00     0.241 C 
ATOM     64  O   GLU A   4     -11.811  -0.602  -7.824  1.00  0.00    -0.271 OA
BRANCH  63  65
ATOM     65  CA  GLU A   4     -11.457  -2.844  -7.050  1.00  0.00     0.177 C 
BRANCH  65  66
ATOM     66  N   GLU A   4     -10.553  -3.236  -5.955  1.00  0.00    -0.346 N 
ATOM     67  H   GLU A   4     -10.074  -2.487  -5.471  1.00  0.00     0.163 HD
ATOM     68  C   PRO A   3     -10.097  -4.474  -5.742  1.00  0.00     0.241 C 
ATOM     69  O   PRO A   3     -10.440  -5.432  -6.414  1.00  0.00    -0.271 OA
BRANCH  68  70
ATOM     70  CA  PRO A   3      -9.119  -4.701  -4.581  1.00  0.00     0.179 C 
ATOM     71  N   PRO A   3      -9.696  -5.231  -3.326  1.00  0.00    -0.337 N 
ATOM     72  CD  PRO A   3      -8.937  -6.411  -2.919  1.00  0.00     0.127 C 
ATOM     73  C   ASP A   2     -10.608  -4.547  -2.586  1.00  0.00     0.243 C 
ATOM     74  CG  PRO A   3      -7.607  -6.317  -3.664  1.00  0.00     0.022 C 
ATOM     75  CB  PRO A   3      -8.024  -5.697  -4.993  1.00  0.00     0.037 C 
ATOM     76  O   ASP A   2     -11.128  -3.545  -3.084  1.00  0.00    -0.271 OA
BRANCH  73  77
ATOM     77  CA  ASP A   2     -11.361  -5.206  -1.377  1.00  0.00     0.186 C 
BRANCH  77  78
ATOM     78  CB  ASP A   2     -12.432  -6.238  -1.765  1.00  0.00     0.147 C 
BRANCH  78  79
ATOM     79  CG  ASP A   2     -12.260  -7.532  -0.987  1.00  0.00     0.175 C 
ATOM     80  OD2 ASP A   2     -11.944  -7.381   0.216  1.00  0.00    -0.648 OA
ATOM     81  OD1 ASP A   2     -12.753  -8.545  -1.498  1.00  0.00    -0.648 OA
ENDBRANCH  78  79
ENDBRANCH  77  78
BRANCH  77  82
ATOM     82  N   ASP A   2     -11.966  -4.297  -0.371  1.00  0.00    -0.345 N 
ATOM     83  H   ASP A   2     -12.972  -4.251  -0.422  1.00  0.00     0.163 HD
ATOM     84  C   TYR A   1     -11.338  -3.898   0.749  1.00  0.00     0.249 C 
ATOM     85  O   TYR A   1     -10.150  -4.046   0.908  1.00  0.00    -0.271 OA
BRANCH  84  86
ATOM     86  CA  TYR A   1     -11.999  -2.930   1.708  1.00  0.00     0.278 C 
BRANCH  86  87
ATOM     87  N   TYR A   1     -12.259  -3.559   3.013  1.00  0.00    -0.066 N 
ATOM     88  H2  TYR A   1     -13.242  -3.507   3.238  1.00  0.00     0.275 HD
ATOM     89  H1  TYR A   1     -11.724  -3.078   3.723  1.00  0.00     0.275 HD
ATOM     90  H3  TYR A   1     -11.974  -4.532   2.980  1.00  0.00     0.275 HD
ENDBRANCH  86  87
BRANCH  86  91
ATOM     91  CB  TYR A   1     -11.318  -1.567   1.823  1.00  0.00     0.081 C 
BRANCH  91  92
ATOM     92  CG  TYR A   1     -11.797  -0.597   0.757  1.00  0.00    -0.056 A 
ATOM     93  CD2 TYR A   1     -13.121  -0.702   0.272  1.00  0.00     0.010 A 
ATOM     94  CE2 TYR A   1     -13.572   0.170  -0.736  1.00  0.00     0.037 A 
ATOM     95  CZ  TYR A   1     -12.705   1.157  -1.255  1.00  0.00     0.065 A 
ATOM     96  CE1 TYR A   1     -11.399   1.286  -0.747  1.00  0.00     0.037 A 
ATOM     97  CD1 TYR A   1     -10.937   0.412   0.263  1.00  0.00     0.010 A 
BRANCH  95  98
ATOM     98  OH  TYR A   1     -13.126   1.989  -2.236  1.00  0.00    -0.361 OA
ATOM     99  HH  TYR A   1     -14.017   2.303  -2.078  1.00  0.00     0.217 HD
ENDBRANCH  95  98
ENDBRANCH  91  92
ENDBRANCH  86  91
ENDBRANCH  84  86
ENDBRANCH  77  82
ENDBRANCH  73  77
ENDBRANCH  68  70
ENDBRANCH  65  66
BRANCH  65 100
ATOM    100  CB  GLU A   4     -12.897  -2.734  -6.501  1.00  0.00     0.045 C 
BRANCH 100 101
ATOM    101  CG  GLU A   4     -13.899  -3.757  -7.060  1.00  0.00     0.116 C 
BRANCH 101 102
ATOM    102  CD  GLU A   4     -13.828  -5.095  -6.306  1.00  0.00     0.172 C 
ATOM    103  OE2 GLU A   4     -13.558  -5.024  -5.086  1.00  0.00    -0.648 OA
ATOM    104  OE1 GLU A   4     -13.693  -6.134  -7.000  1.00  0.00    -0.648 OA
ENDBRANCH 101 102
ENDBRANCH 100 101
ENDBRANCH  65 100
ENDBRANCH  63  65
ENDBRANCH  60  61
BRANCH  60 105
ATOM    105  CB  TYR A   5      -8.066   0.180  -8.639  1.00  0.00     0.073 C 
BRANCH 105 106
ATOM    106  CG  TYR A   5      -7.636   1.535  -9.194  1.00  0.00    -0.056 A 
ATOM    107  CD1 TYR A   5      -8.301   2.721  -8.798  1.00  0.00     0.010 A 
ATOM    108  CE1 TYR A   5      -7.792   3.981  -9.195  1.00  0.00     0.037 A 
ATOM    109  CZ  TYR A   5      -6.634   4.052  -9.993  1.00  0.00     0.065 A 
ATOM    110  CE2 TYR A   5      -5.989   2.870 -10.414  1.00  0.00     0.037 A 
ATOM    111  CD2 TYR A   5      -6.484   1.615 -10.008  1.00  0.00     0.010 A 
BRANCH 109 112
ATOM    112  OH  TYR A   5      -6.131   5.256 -10.351  1.00  0.00    -0.361 OA
ATOM    113  HH  TYR A   5      -5.696   5.657  -9.596  1.00  0.00     0.217 HD
ENDBRANCH 109 112
ENDBRANCH 105 106
ENDBRANCH  60 105
ENDBRANCH   1  60
TORSDOF 38
ENDMDL
MODEL 8
REMARK VINA RESULT:      -4.7     14.853     20.598
REMARK WARNING: 32 MAX_TORS EXCEEDED!!!
REMARK  38 active torsions:
REMARK  status: ('A' for Active; 'I' for Inactive)
REMARK    1  A    between atoms: N_1  and  CA_2 
REMARK    2  A    between atoms: CA_2  and  CB_5 
REMARK    3  A    between atoms: CA_2  and  C_3 
REMARK       I    between atoms: C_3  and  N_17 
REMARK    4  A    between atoms: CB_5  and  CG_6 
REMARK    5  A    between atoms: CZ_10  and  OH_11 
REMARK    6  A    between atoms: N_17  and  CA_18 
REMARK    7  A    between atoms: CA_18  and  CB_21 
REMARK    8  A    between atoms: CA_18  and  C_19 
REMARK       I    between atoms: C_19  and  N_26 
REMARK    9  A    between atoms: CB_21  and  CG_22 
REMARK   10  A    between atoms: CA_27  and  C_28 
REMARK       I    between atoms: C_28  and  N_33 
REMARK   11  A    between atoms: N_33  and  CA_34 
REMARK   12  A    between atoms: CA_34  and  C_35 
REMARK   13  A    between atoms: CA_34  and  CB_37 
REMARK       I    between atoms: C_35  and  N_43 
REMARK   14  A    between atoms: CB_37  and  CG_38 
REMARK   15  A    between atoms: CG_38  and  CD_39 
REMARK   16  A    between atoms: N_43  and  CA_44 
REMARK   17  A    between atoms: CA_44  and  CB_47 
REMARK   18  A    between atoms: CA_44  and  C_45 
REMARK       I    between atoms: C_45  and  N_57 
REMARK   19  A    between atoms: CB_47  and  CG_48 
REMARK   20  A    between atoms: CZ_52  and  OH_53 
REMARK   21  A    between atoms: N_57  and  CA_58 
REMARK   22  A    between atoms: CA_58  and  CB_61 
REMARK   23  A    between atoms: CA_58  and  C_59 
REMARK       I    between atoms: C_59  and  N_74 
REMARK   24  A    between atoms: CB_61  and  CG_62 
REMARK   25  A    between atoms: CG_62  and  CD_63 
REMARK   26  A    between atoms: CD_63  and  NE_64 
REMARK       I    between atoms: NE_64  and  CZ_65 
REMARK       I    between atoms: CZ_65  and  NH2_66 
REMARK   27  A    between atoms: N_74  and  CA_75 
REMARK   28  A    between atoms: CA_75  and  CB_78 
REMARK   29  A    between atoms: CA_75  and  C_76 
REMARK       I    between atoms: C_76  and  N_85 
REMARK   30  A    between atoms: CB_78  and  CG_79 
REMARK       I    between atoms: CG_79  and  ND2_80 
REMARK   31  A    between atoms: N_85  and  CA_86 
REMARK   32  A    between atoms: CA_86  and  CB_89 
REMARK   33  A    between atoms: CA_86  and  C_87 
REMARK       I    between atoms: C_87  and  N_97 
REMARK   34  A    between atoms: CB_89  and  CG_90 
REMARK   35  A    between atoms: N_97  and  CA_98 
REMARK   36  A    between atoms: CA_98  and  C_99 
REMARK   37  A    between atoms: CA_98  and  CB_102 
REMARK   38  A    between atoms: CB_102  and  CG_103 
ROOT
ATOM      1  C   TYR A   5       9.598 -11.099 -15.651  1.00  0.00     0.241 C 
ATOM      2  O   TYR A   5       8.655 -11.477 -16.341  1.00  0.00    -0.271 OA
ATOM      3  N   ARG A   6      10.853 -11.077 -16.134  1.00  0.00    -0.346 N 
ATOM      4  H   ARG A   6      11.586 -10.736 -15.517  1.00  0.00     0.163 HD
ENDROOT
BRANCH   3   5
ATOM      5  CA  ARG A   6      11.210 -11.455 -17.520  1.00  0.00     0.176 C 
BRANCH   5   6
ATOM      6  CB  ARG A   6      11.483 -10.174 -18.333  1.00  0.00     0.036 C 
BRANCH   6   7
ATOM      7  CG  ARG A   6      10.606 -10.058 -19.601  1.00  0.00     0.023 C 
BRANCH   7   8
ATOM      8  CD  ARG A   6       9.787 -11.324 -19.896  1.00  0.00     0.138 C 
BRANCH   8   9
ATOM      9  NE  ARG A   6      10.246 -12.008 -21.125  1.00  0.00    -0.227 N 
ATOM     10  HE  ARG A   6      10.276 -11.441 -21.953  1.00  0.00     0.177 HD
ATOM     11  CZ  ARG A   6      10.723 -13.238 -21.241  1.00  0.00     0.665 C 
ATOM     12  NH2 ARG A   6      11.200 -13.631 -22.380  1.00  0.00    -0.235 N 
ATOM     13  NH1 ARG A   6      10.757 -14.096 -20.260  1.00  0.00    -0.235 N 
ATOM     14 1HH2 ARG A   6      11.448 -12.925 -23.046  1.00  0.00     0.174 HD
ATOM     15 2HH2 ARG A   6      11.830 -14.416 -22.361  1.00  0.00     0.174 HD
ATOM     16 1HH1 ARG A   6      10.604 -13.764 -19.325  1.00  0.00     0.174 HD
ATOM     17 2HH1 ARG A   6      11.182 -14.994 -20.397  1.00  0.00     0.174 HD
ENDBRANCH   8   9
ENDBRANCH   7   8
ENDBRANCH   6   7
ENDBRANCH   5   6
BRANCH   5  18
ATOM     18  C   ARG A   6      12.394 -12.443 -17.614  1.00  0.00     0.241 C 
ATOM     19  N   ASN A   7      12.749 -13.159 -16.538  1.00  0.00    -0.346 N 
ATOM     20  H   ASN A   7      12.163 -13.116 -15.714  1.00  0.00     0.163 HD
ATOM     21  O   ARG A   6      13.064 -12.460 -18.639  1.00  0.00    -0.271 OA
BRANCH  19  22
ATOM     22  CA  ASN A   7      13.807 -14.187 -16.596  1.00  0.00     0.185 C 
BRANCH  22  23
ATOM     23  CB  ASN A   7      15.192 -13.573 -16.315  1.00  0.00     0.137 C 
BRANCH  23  24
ATOM     24  CG  ASN A   7      15.249 -12.253 -15.573  1.00  0.00     0.217 C 
ATOM     25  ND2 ASN A   7      15.641 -11.225 -16.296  1.00  0.00    -0.370 N 
ATOM     26 2HD2 ASN A   7      16.076 -11.385 -17.202  1.00  0.00     0.159 HD
ATOM     27 1HD2 ASN A   7      15.626 -10.324 -15.869  1.00  0.00     0.159 HD
ATOM     28  OD1 ASN A   7      14.733 -12.066 -14.475  1.00  0.00    -0.274 OA
ENDBRANCH  23  24
ENDBRANCH  22  23
BRANCH  22  29
ATOM     29  C   ASN A   7      13.584 -15.356 -15.611  1.00  0.00     0.241 C 
ATOM     30  N   PHE A   8      12.420 -16.019 -15.681  1.00  0.00    -0.346 N 
ATOM     31  H   PHE A   8      11.719 -15.688 -16.335  1.00  0.00     0.163 HD
ATOM     32  O   ASN A   7      14.408 -15.554 -14.718  1.00  0.00    -0.271 OA
BRANCH  30  33
ATOM     33  CA  PHE A   8      12.099 -17.213 -14.884  1.00  0.00     0.180 C 
BRANCH  33  34
ATOM     34  CB  PHE A   8      11.396 -16.734 -13.596  1.00  0.00     0.073 C 
BRANCH  34  35
ATOM     35  CG  PHE A   8      12.175 -16.989 -12.317  1.00  0.00    -0.056 A 
ATOM     36  CD1 PHE A   8      13.036 -18.099 -12.222  1.00  0.00     0.007 A 
ATOM     37  CE1 PHE A   8      13.652 -18.408 -10.996  1.00  0.00     0.001 A 
ATOM     38  CZ  PHE A   8      13.411 -17.608  -9.865  1.00  0.00     0.000 A 
ATOM     39  CE2 PHE A   8      12.578 -16.480  -9.967  1.00  0.00     0.001 A 
ATOM     40  CD2 PHE A   8      11.966 -16.167 -11.193  1.00  0.00     0.007 A 
ENDBRANCH  34  35
ENDBRANCH  33  34
BRANCH  33  41
ATOM     41  C   PHE A   8      11.260 -18.256 -15.664  1.00  0.00     0.241 C 
ATOM     42  N   TRP A   9       9.939 -18.276 -15.424  1.00  0.00    -0.344 N 
ATOM     43  H   TRP A   9       9.582 -17.601 -14.765  1.00  0.00     0.163 HD
ATOM     44  O   PHE A   8      11.826 -19.046 -16.423  1.00  0.00    -0.271 OA
BRANCH  42  45
ATOM     45  CA  TRP A   9       8.952 -19.218 -15.979  1.00  0.00     0.190 C 
BRANCH  45  46
ATOM     46  C   TRP A   9       8.159 -18.692 -17.195  1.00  0.00     0.197 C 
ATOM     47  OXT TRP A   9       6.964 -19.070 -17.303  1.00  0.00    -0.646 OA
ATOM     48  O   TRP A   9       8.838 -18.265 -18.154  1.00  0.00    -0.646 OA
ENDBRANCH  45  46
BRANCH  45  49
ATOM     49  CB  TRP A   9       8.007 -19.618 -14.835  1.00  0.00     0.077 C 
BRANCH  49  50
ATOM     50  CG  TRP A   9       8.328 -18.972 -13.526  1.00  0.00    -0.028 A 
ATOM     51  CD1 TRP A   9       7.660 -17.911 -13.030  1.00  0.00     0.096 A 
ATOM     52  NE1 TRP A   9       8.079 -17.652 -11.742  1.00  0.00    -0.365 N 
ATOM     53  HE1 TRP A   9       7.571 -17.036 -11.131  1.00  0.00     0.165 HD
ATOM     54  CE2 TRP A   9       9.000 -18.584 -11.321  1.00  0.00     0.042 A 
ATOM     55  CD2 TRP A   9       9.184 -19.446 -12.443  1.00  0.00    -0.002 A 
ATOM     56  CZ2 TRP A   9       9.631 -18.801 -10.089  1.00  0.00     0.030 A 
ATOM     57  CE3 TRP A   9      10.037 -20.557 -12.261  1.00  0.00     0.014 A 
ATOM     58  CZ3 TRP A   9      10.663 -20.797 -11.021  1.00  0.00     0.001 A 
ATOM     59  CH2 TRP A   9      10.465 -19.922  -9.937  1.00  0.00     0.002 A 
ENDBRANCH  49  50
ENDBRANCH  45  49
ENDBRANCH  42  45
ENDBRANCH  33  41
ENDBRANCH  30  33
ENDBRANCH  22  29
ENDBRANCH  19  22
ENDBRANCH   5  18
ENDBRANCH   3   5
BRANCH   1  60
ATOM     60  CA  TYR A   5       9.385 -10.929 -14.136  1.00  0.00     0.180 C 
BRANCH  60  61
ATOM     61  N   TYR A   5      10.633 -10.610 -13.433  1.00  0.00    -0.346 N 
ATOM     62  H   TYR A   5      10.992  -9.668 -13.494  1.00  0.00     0.163 HD
ATOM     63  C   GLU A   4      11.369 -11.543 -12.806  1.00  0.00     0.241 C 
ATOM     64  O   GLU A   4      11.068 -12.731 -12.869  1.00  0.00    -0.271 OA
BRANCH  63  65
ATOM     65  CA  GLU A   4      12.755 -11.127 -12.294  1.00  0.00     0.177 C 
BRANCH  65  66
ATOM     66  N   GLU A   4      13.196  -9.865 -12.914  1.00  0.00    -0.346 N 
ATOM     67  H   GLU A   4      13.991  -9.919 -13.539  1.00  0.00     0.163 HD
ATOM     68  C   PRO A   3      12.834  -8.644 -12.510  1.00  0.00     0.241 C 
ATOM     69  O   PRO A   3      12.039  -8.453 -11.605  1.00  0.00    -0.271 OA
BRANCH  68  70
ATOM     70  CA  PRO A   3      13.427  -7.429 -13.238  1.00  0.00     0.179 C 
ATOM     71  N   PRO A   3      12.466  -6.537 -13.922  1.00  0.00    -0.337 N 
ATOM     72  CD  PRO A   3      12.699  -5.165 -13.479  1.00  0.00     0.127 C 
ATOM     73  C   ASP A   2      11.696  -6.942 -14.966  1.00  0.00     0.243 C 
ATOM     74  CG  PRO A   3      14.110  -5.160 -12.894  1.00  0.00     0.022 C 
ATOM     75  CB  PRO A   3      14.197  -6.540 -12.250  1.00  0.00     0.037 C 
ATOM     76  O   ASP A   2      11.644  -8.149 -15.217  1.00  0.00    -0.271 OA
BRANCH  73  77
ATOM     77  CA  ASP A   2      10.540  -6.050 -15.542  1.00  0.00     0.186 C 
BRANCH  77  78
ATOM     78  CB  ASP A   2       9.125  -6.624 -15.360  1.00  0.00     0.147 C 
BRANCH  78  79
ATOM     79  CG  ASP A   2       8.510  -7.009 -16.695  1.00  0.00     0.175 C 
ATOM     80  OD2 ASP A   2       8.801  -8.162 -17.092  1.00  0.00    -0.648 OA
ATOM     81  OD1 ASP A   2       7.559  -6.316 -17.077  1.00  0.00    -0.648 OA
ENDBRANCH  78  79
ENDBRANCH  77  78
BRANCH  77  82
ATOM     82  N   ASP A   2      10.659  -5.605 -16.954  1.00  0.00    -0.345 N 
ATOM     83  H   ASP A   2      10.163  -6.194 -17.606  1.00  0.00     0.163 HD
ATOM     84  C   TYR A   1      11.010  -4.360 -17.318  1.00  0.00     0.249 C 
ATOM     85  O   TYR A   1      11.495  -3.574 -16.538  1.00  0.00    -0.271 OA
BRANCH  84  86
ATOM     86  CA  TYR A   1      11.158  -3.989 -18.778  1.00  0.00     0.278 C 
BRANCH  86  87
ATOM     87  N   TYR A   1      12.293  -4.691 -19.400  1.00  0.00    -0.066 N 
ATOM     88  H2  TYR A   1      12.237  -5.681 -19.214  1.00  0.00     0.275 HD
ATOM     89  H1  TYR A   1      13.155  -4.324 -19.021  1.00  0.00     0.275 HD
ATOM     90  H3  TYR A   1      12.275  -4.536 -20.402  1.00  0.00     0.275 HD
ENDBRANCH  86  87
BRANCH  86  91
ATOM     91  CB  TYR A   1       9.874  -4.075 -19.601  1.00  0.00     0.081 C 
BRANCH  91  92
ATOM     92  CG  TYR A   1       8.855  -3.029 -19.183  1.00  0.00    -0.056 A 
ATOM     93  CD2 TYR A   1       7.551  -3.440 -18.822  1.00  0.00     0.010 A 
ATOM     94  CE2 TYR A   1       6.587  -2.482 -18.460  1.00  0.00     0.037 A 
ATOM     95  CZ  TYR A   1       6.925  -1.111 -18.445  1.00  0.00     0.065 A 
ATOM     96  CE1 TYR A   1       8.234  -0.704 -18.769  1.00  0.00     0.037 A 
ATOM     97  CD1 TYR A   1       9.207  -1.660 -19.138  1.00  0.00     0.010 A 
BRANCH  95  98
ATOM     98  OH  TYR A   1       5.999  -0.181 -18.115  1.00  0.00    -0.361 OA
ATOM     99  HH  TYR A   1       5.849  -0.150 -17.169  1.00  0.00     0.217 HD
ENDBRANCH  95  98
ENDBRANCH  91  92
ENDBRANCH  86  91
ENDBRANCH  84  86
ENDBRANCH  77  82
ENDBRANCH  73  77
ENDBRANCH  68  70
ENDBRANCH  65  66
BRANCH  65 100
ATOM    100  CB  GLU A   4      12.753 -10.961 -10.759  1.00  0.00     0.045 C 
BRANCH 100 101
ATOM    101  CG  GLU A   4      13.970 -11.550 -10.027  1.00  0.00     0.116 C 
BRANCH 101 102
ATOM    102  CD  GLU A   4      13.583 -12.759  -9.159  1.00  0.00     0.172 C 
ATOM    103  OE2 GLU A   4      14.518 -13.524  -8.834  1.00  0.00    -0.648 OA
ATOM    104  OE1 GLU A   4      12.368 -13.080  -9.140  1.00  0.00    -0.648 OA
ENDBRANCH 101 102
ENDBRANCH 100 101
ENDBRANCH  65 100
ENDBRANCH  63  65
ENDBRANCH  60  61
BRANCH  60 105
ATOM    105  CB  TYR A   5       8.306  -9.873 -13.827  1.00  0.00     0.073 C 
BRANCH 105 106
ATOM    106  CG  TYR A   5       7.026 -10.386 -13.176  1.00  0.00    -0.056 A 
ATOM    107  CD1 TYR A   5       5.994  -9.490 -12.808  1.00  0.00     0.010 A 
ATOM    108  CE1 TYR A   5       4.751  -9.994 -12.353  1.00  0.00     0.037 A 
ATOM    109  CZ  TYR A   5       4.548 -11.383 -12.256  1.00  0.00     0.065 A 
ATOM    110  CE2 TYR A   5       5.587 -12.277 -12.593  1.00  0.00     0.037 A 
ATOM    111  CD2 TYR A   5       6.819 -11.780 -13.060  1.00  0.00     0.010 A 
BRANCH 109 112
ATOM    112  OH  TYR A   5       3.353 -11.867 -11.847  1.00  0.00    -0.361 OA
ATOM    113  HH  TYR A   5       2.772 -11.963 -12.605  1.00  0.00     0.217 HD
ENDBRANCH 109 112
ENDBRANCH 105 106
ENDBRANCH  60 105
ENDBRANCH   1  60
TORSDOF 38
ENDMDL
MODEL 9
REMARK VINA RESULT:      -4.7     15.785     22.619
REMARK WARNING: 32 MAX_TORS EXCEEDED!!!
REMARK  38 active torsions:
REMARK  status: ('A' for Active; 'I' for Inactive)
REMARK    1  A    between atoms: N_1  and  CA_2 
REMARK    2  A    between atoms: CA_2  and  CB_5 
REMARK    3  A    between atoms: CA_2  and  C_3 
REMARK       I    between atoms: C_3  and  N_17 
REMARK    4  A    between atoms: CB_5  and  CG_6 
REMARK    5  A    between atoms: CZ_10  and  OH_11 
REMARK    6  A    between atoms: N_17  and  CA_18 
REMARK    7  A    between atoms: CA_18  and  CB_21 
REMARK    8  A    between atoms: CA_18  and  C_19 
REMARK       I    between atoms: C_19  and  N_26 
REMARK    9  A    between atoms: CB_21  and  CG_22 
REMARK   10  A    between atoms: CA_27  and  C_28 
REMARK       I    between atoms: C_28  and  N_33 
REMARK   11  A    between atoms: N_33  and  CA_34 
REMARK   12  A    between atoms: CA_34  and  C_35 
REMARK   13  A    between atoms: CA_34  and  CB_37 
REMARK       I    between atoms: C_35  and  N_43 
REMARK   14  A    between atoms: CB_37  and  CG_38 
REMARK   15  A    between atoms: CG_38  and  CD_39 
REMARK   16  A    between atoms: N_43  and  CA_44 
REMARK   17  A    between atoms: CA_44  and  CB_47 
REMARK   18  A    between atoms: CA_44  and  C_45 
REMARK       I    between atoms: C_45  and  N_57 
REMARK   19  A    between atoms: CB_47  and  CG_48 
REMARK   20  A    between atoms: CZ_52  and  OH_53 
REMARK   21  A    between atoms: N_57  and  CA_58 
REMARK   22  A    between atoms: CA_58  and  CB_61 
REMARK   23  A    between atoms: CA_58  and  C_59 
REMARK       I    between atoms: C_59  and  N_74 
REMARK   24  A    between atoms: CB_61  and  CG_62 
REMARK   25  A    between atoms: CG_62  and  CD_63 
REMARK   26  A    between atoms: CD_63  and  NE_64 
REMARK       I    between atoms: NE_64  and  CZ_65 
REMARK       I    between atoms: CZ_65  and  NH2_66 
REMARK   27  A    between atoms: N_74  and  CA_75 
REMARK   28  A    between atoms: CA_75  and  CB_78 
REMARK   29  A    between atoms: CA_75  and  C_76 
REMARK       I    between atoms: C_76  and  N_85 
REMARK   30  A    between atoms: CB_78  and  CG_79 
REMARK       I    between atoms: CG_79  and  ND2_80 
REMARK   31  A    between atoms: N_85  and  CA_86 
REMARK   32  A    between atoms: CA_86  and  CB_89 
REMARK   33  A    between atoms: CA_86  and  C_87 
REMARK       I    between atoms: C_87  and  N_97 
REMARK   34  A    between atoms: CB_89  and  CG_90 
REMARK   35  A    between atoms: N_97  and  CA_98 
REMARK   36  A    between atoms: CA_98  and  C_99 
REMARK   37  A    between atoms: CA_98  and  CB_102 
REMARK   38  A    between atoms: CB_102  and  CG_103 
ROOT
ATOM      1  C   TYR A   5      14.565 -15.082  -9.230  1.00  0.00     0.241 C 
ATOM      2  O   TYR A   5      15.776 -15.031  -9.433  1.00  0.00    -0.271 OA
ATOM      3  N   ARG A   6      13.751 -14.078  -9.602  1.00  0.00    -0.346 N 
ATOM      4  H   ARG A   6      12.757 -14.190  -9.422  1.00  0.00     0.163 HD
ENDROOT
BRANCH   3   5
ATOM      5  CA  ARG A   6      14.212 -12.863 -10.310  1.00  0.00     0.176 C 
BRANCH   5   6
ATOM      6  CB  ARG A   6      14.160 -13.120 -11.830  1.00  0.00     0.036 C 
BRANCH   6   7
ATOM      7  CG  ARG A   6      12.738 -13.447 -12.343  1.00  0.00     0.023 C 
BRANCH   7   8
ATOM      8  CD  ARG A   6      12.665 -14.750 -13.154  1.00  0.00     0.138 C 
BRANCH   8   9
ATOM      9  NE  ARG A   6      12.473 -14.496 -14.599  1.00  0.00    -0.227 N 
ATOM     10  HE  ARG A   6      12.095 -13.596 -14.836  1.00  0.00     0.177 HD
ATOM     11  CZ  ARG A   6      12.840 -15.262 -15.614  1.00  0.00     0.665 C 
ATOM     12  NH2 ARG A   6      12.706 -14.821 -16.826  1.00  0.00    -0.235 N 
ATOM     13  NH1 ARG A   6      13.350 -16.453 -15.474  1.00  0.00    -0.235 N 
ATOM     14 1HH2 ARG A   6      12.596 -13.832 -16.947  1.00  0.00     0.174 HD
ATOM     15 2HH2 ARG A   6      13.271 -15.262 -17.533  1.00  0.00     0.174 HD
ATOM     16 1HH1 ARG A   6      13.669 -16.737 -14.565  1.00  0.00     0.174 HD
ATOM     17 2HH1 ARG A   6      13.660 -16.962 -16.281  1.00  0.00     0.174 HD
ENDBRANCH   8   9
ENDBRANCH   7   8
ENDBRANCH   6   7
ENDBRANCH   5   6
BRANCH   5  18
ATOM     18  C   ARG A   6      13.433 -11.583  -9.931  1.00  0.00     0.241 C 
ATOM     19  N   ASN A   7      13.948 -10.381 -10.226  1.00  0.00    -0.346 N 
ATOM     20  H   ASN A   7      14.787 -10.340 -10.790  1.00  0.00     0.163 HD
ATOM     21  O   ARG A   6      12.418 -11.693  -9.256  1.00  0.00    -0.271 OA
BRANCH  19  22
ATOM     22  CA  ASN A   7      13.205  -9.130  -9.977  1.00  0.00     0.185 C 
BRANCH  22  23
ATOM     23  CB  ASN A   7      14.103  -8.078  -9.299  1.00  0.00     0.137 C 
BRANCH  23  24
ATOM     24  CG  ASN A   7      14.696  -8.412  -7.946  1.00  0.00     0.217 C 
ATOM     25  ND2 ASN A   7      16.008  -8.499  -7.919  1.00  0.00    -0.370 N 
ATOM     26 2HD2 ASN A   7      16.526  -8.556  -8.793  1.00  0.00     0.159 HD
ATOM     27 1HD2 ASN A   7      16.447  -8.647  -7.035  1.00  0.00     0.159 HD
ATOM     28  OD1 ASN A   7      14.066  -8.354  -6.893  1.00  0.00    -0.274 OA
ENDBRANCH  23  24
ENDBRANCH  22  23
BRANCH  22  29
ATOM     29  C   ASN A   7      12.605  -8.505 -11.257  1.00  0.00     0.241 C 
ATOM     30  N   PHE A   8      12.478  -7.170 -11.301  1.00  0.00    -0.346 N 
ATOM     31  H   PHE A   8      12.727  -6.639 -10.473  1.00  0.00     0.163 HD
ATOM     32  O   ASN A   7      12.144  -9.243 -12.126  1.00  0.00    -0.271 OA
BRANCH  30  33
ATOM     33  CA  PHE A   8      12.021  -6.420 -12.481  1.00  0.00     0.180 C 
BRANCH  33  34
ATOM     34  CB  PHE A   8      13.076  -6.618 -13.590  1.00  0.00     0.073 C 
BRANCH  34  35
ATOM     35  CG  PHE A   8      14.290  -5.712 -13.479  1.00  0.00    -0.056 A 
ATOM     36  CD1 PHE A   8      14.130  -4.350 -13.158  1.00  0.00     0.007 A 
ATOM     37  CE1 PHE A   8      15.240  -3.486 -13.186  1.00  0.00     0.001 A 
ATOM     38  CZ  PHE A   8      16.510  -3.982 -13.531  1.00  0.00     0.000 A 
ATOM     39  CE2 PHE A   8      16.676  -5.348 -13.819  1.00  0.00     0.001 A 
ATOM     40  CD2 PHE A   8      15.569  -6.213 -13.786  1.00  0.00     0.007 A 
ENDBRANCH  34  35
ENDBRANCH  33  34
BRANCH  33  41
ATOM     41  C   PHE A   8      10.597  -6.820 -12.939  1.00  0.00     0.241 C 
ATOM     42  N   TRP A   9      10.505  -7.602 -14.026  1.00  0.00    -0.344 N 
ATOM     43  H   TRP A   9      11.368  -7.889 -14.460  1.00  0.00     0.163 HD
ATOM     44  O   PHE A   8       9.617  -6.376 -12.335  1.00  0.00    -0.271 OA
BRANCH  42  45
ATOM     45  CA  TRP A   9       9.270  -8.048 -14.695  1.00  0.00     0.190 C 
BRANCH  45  46
ATOM     46  C   TRP A   9       9.359  -9.431 -15.376  1.00  0.00     0.197 C 
ATOM     47  OXT TRP A   9       8.272  -9.989 -15.678  1.00  0.00    -0.646 OA
ATOM     48  O   TRP A   9      10.435 -10.050 -15.233  1.00  0.00    -0.646 OA
ENDBRANCH  45  46
BRANCH  45  49
ATOM     49  CB  TRP A   9       8.878  -6.959 -15.706  1.00  0.00     0.077 C 
BRANCH  49  50
ATOM     50  CG  TRP A   9       7.509  -6.399 -15.496  1.00  0.00    -0.028 A 
ATOM     51  CD1 TRP A   9       6.778  -6.602 -14.381  1.00  0.00     0.096 A 
ATOM     52  NE1 TRP A   9       5.639  -5.827 -14.416  1.00  0.00    -0.365 N 
ATOM     53  HE1 TRP A   9       5.067  -5.682 -13.602  1.00  0.00     0.165 HD
ATOM     54  CE2 TRP A   9       5.614  -5.030 -15.539  1.00  0.00     0.042 A 
ATOM     55  CD2 TRP A   9       6.799  -5.373 -16.255  1.00  0.00    -0.002 A 
ATOM     56  CZ2 TRP A   9       4.736  -4.024 -15.967  1.00  0.00     0.030 A 
ATOM     57  CE3 TRP A   9       7.069  -4.640 -17.432  1.00  0.00     0.014 A 
ATOM     58  CZ3 TRP A   9       6.205  -3.613 -17.862  1.00  0.00     0.001 A 
ATOM     59  CH2 TRP A   9       5.040  -3.305 -17.135  1.00  0.00     0.002 A 
ENDBRANCH  49  50
ENDBRANCH  45  49
ENDBRANCH  42  45
ENDBRANCH  33  41
ENDBRANCH  30  33
ENDBRANCH  22  29
ENDBRANCH  19  22
ENDBRANCH   5  18
ENDBRANCH   3   5
BRANCH   1  60
ATOM     60  CA  TYR A   5      14.018 -16.167  -8.285  1.00  0.00     0.180 C 
BRANCH  60  61
ATOM     61  N   TYR A   5      13.429 -17.294  -9.017  1.00  0.00    -0.346 N 
ATOM     62  H   TYR A   5      13.954 -18.154  -9.079  1.00  0.00     0.163 HD
ATOM     63  C   GLU A   4      12.273 -17.191  -9.695  1.00  0.00     0.241 C 
ATOM     64  O   GLU A   4      11.699 -16.112  -9.803  1.00  0.00    -0.271 OA
BRANCH  63  65
ATOM     65  CA  GLU A   4      11.871 -18.370 -10.594  1.00  0.00     0.177 C 
BRANCH  65  66
ATOM     66  N   GLU A   4      10.917 -17.946 -11.634  1.00  0.00    -0.346 N 
ATOM     67  H   GLU A   4      11.033 -17.010 -12.002  1.00  0.00     0.163 HD
ATOM     68  C   PRO A   3       9.767 -18.564 -11.918  1.00  0.00     0.241 C 
ATOM     69  O   PRO A   3       9.415 -19.595 -11.370  1.00  0.00    -0.271 OA
BRANCH  68  70
ATOM     70  CA  PRO A   3       8.863 -17.960 -13.002  1.00  0.00     0.179 C 
ATOM     71  N   PRO A   3       8.901 -18.610 -14.329  1.00  0.00    -0.337 N 
ATOM     72  CD  PRO A   3       7.535 -18.931 -14.737  1.00  0.00     0.127 C 
ATOM     73  C   ASP A   2      10.017 -18.642 -15.105  1.00  0.00     0.243 C 
ATOM     74  CG  PRO A   3       6.635 -18.045 -13.877  1.00  0.00     0.022 C 
ATOM     75  CB  PRO A   3       7.394 -18.002 -12.554  1.00  0.00     0.037 C 
ATOM     76  O   ASP A   2      11.088 -18.302 -14.596  1.00  0.00    -0.271 OA
BRANCH  73  77
ATOM     77  CA  ASP A   2      10.098 -19.510 -16.410  1.00  0.00     0.186 C 
BRANCH  77  78
ATOM     78  CB  ASP A   2      11.518 -19.727 -16.958  1.00  0.00     0.147 C 
BRANCH  78  79
ATOM     79  CG  ASP A   2      11.819 -18.776 -18.105  1.00  0.00     0.175 C 
ATOM     80  OD2 ASP A   2      11.843 -19.314 -19.237  1.00  0.00    -0.648 OA
ATOM     81  OD1 ASP A   2      11.682 -17.571 -17.864  1.00  0.00    -0.648 OA
ENDBRANCH  78  79
ENDBRANCH  77  78
BRANCH  77  82
ATOM     82  N   ASP A   2       9.239 -19.107 -17.552  1.00  0.00    -0.345 N 
ATOM     83  H   ASP A   2       9.510 -18.230 -17.971  1.00  0.00     0.163 HD
ATOM     84  C   TYR A   1       8.464 -19.961 -18.242  1.00  0.00     0.249 C 
ATOM     85  O   TYR A   1       8.214 -21.072 -17.839  1.00  0.00    -0.271 OA
BRANCH  84  86
ATOM     86  CA  TYR A   1       7.577 -19.471 -19.368  1.00  0.00     0.278 C 
BRANCH  86  87
ATOM     87  N   TYR A   1       8.196 -19.706 -20.683  1.00  0.00    -0.066 N 
ATOM     88  H2  TYR A   1       7.930 -20.613 -21.038  1.00  0.00     0.275 HD
ATOM     89  H1  TYR A   1       9.201 -19.662 -20.586  1.00  0.00     0.275 HD
ATOM     90  H3  TYR A   1       7.889 -18.989 -21.331  1.00  0.00     0.275 HD
ENDBRANCH  86  87
BRANCH  86  91
ATOM     91  CB  TYR A   1       6.123 -19.937 -19.295  1.00  0.00     0.081 C 
BRANCH  91  92
ATOM     92  CG  TYR A   1       5.347 -19.221 -18.204  1.00  0.00    -0.056 A 
ATOM     93  CD2 TYR A   1       4.657 -19.982 -17.233  1.00  0.00     0.010 A 
ATOM     94  CE2 TYR A   1       3.910 -19.335 -16.233  1.00  0.00     0.037 A 
ATOM     95  CZ  TYR A   1       3.858 -17.923 -16.192  1.00  0.00     0.065 A 
ATOM     96  CE1 TYR A   1       4.574 -17.164 -17.138  1.00  0.00     0.037 A 
ATOM     97  CD1 TYR A   1       5.324 -17.807 -18.147  1.00  0.00     0.010 A 
BRANCH  95  98
ATOM     98  OH  TYR A   1       3.127 -17.293 -15.244  1.00  0.00    -0.361 OA
ATOM     99  HH  TYR A   1       2.237 -17.106 -15.547  1.00  0.00     0.217 HD
ENDBRANCH  95  98
ENDBRANCH  91  92
ENDBRANCH  86  91
ENDBRANCH  84  86
ENDBRANCH  77  82
ENDBRANCH  73  77
ENDBRANCH  68  70
ENDBRANCH  65  66
BRANCH  65 100
ATOM    100  CB  GLU A   4      13.109 -18.999 -11.270  1.00  0.00     0.045 C 
BRANCH 100 101
ATOM    101  CG  GLU A   4      13.781 -18.140 -12.354  1.00  0.00     0.116 C 
BRANCH 101 102
ATOM    102  CD  GLU A   4      14.698 -18.980 -13.258  1.00  0.00     0.172 C 
ATOM    103  OE2 GLU A   4      14.312 -19.135 -14.438  1.00  0.00    -0.648 OA
ATOM    104  OE1 GLU A   4      15.542 -19.716 -12.687  1.00  0.00    -0.648 OA
ENDBRANCH 101 102
ENDBRANCH 100 101
ENDBRANCH  65 100
ENDBRANCH  63  65
ENDBRANCH  60  61
BRANCH  60 105
ATOM    105  CB  TYR A   5      15.095 -16.664  -7.303  1.00  0.00     0.073 C 
BRANCH 105 106
ATOM    106  CG  TYR A   5      14.748 -17.909  -6.492  1.00  0.00    -0.056 A 
ATOM    107  CD1 TYR A   5      15.600 -19.039  -6.504  1.00  0.00     0.010 A 
ATOM    108  CE1 TYR A   5      15.349 -20.121  -5.626  1.00  0.00     0.037 A 
ATOM    109  CZ  TYR A   5      14.246 -20.077  -4.753  1.00  0.00     0.065 A 
ATOM    110  CE2 TYR A   5      13.378 -18.964  -4.762  1.00  0.00     0.037 A 
ATOM    111  CD2 TYR A   5      13.634 -17.880  -5.623  1.00  0.00     0.010 A 
BRANCH 109 112
ATOM    112  OH  TYR A   5      14.020 -21.098  -3.895  1.00  0.00    -0.361 OA
ATOM    113  HH  TYR A   5      13.334 -21.667  -4.250  1.00  0.00     0.217 HD
ENDBRANCH 109 112
ENDBRANCH 105 106
ENDBRANCH  60 105
ENDBRANCH   1  60
TORSDOF 38
ENDMDL
