MODEL 1
REMARK VINA RESULT:      -6.4      0.000      0.000
REMARK  28 active torsions:
REMARK  status: ('A' for Active; 'I' for Inactive)
REMARK       I    between atoms: C_1  and  N_3 
REMARK    1  A    between atoms: C_1  and  C_41 
REMARK    2  A    between atoms: N_3  and  C_5 
REMARK    3  A    between atoms: C_5  and  C_6 
REMARK    4  A    between atoms: C_5  and  C_18 
REMARK       I    between atoms: C_18  and  N_19 
REMARK    5  A    between atoms: C_20  and  C_25 
REMARK       I    between atoms: C_25  and  N_26 
REMARK    6  A    between atoms: N_26  and  C_29 
REMARK    7  A    between atoms: C_29  and  C_30 
REMARK    8  A    between atoms: C_29  and  C_38 
REMARK       I    between atoms: C_30  and  N_31 
REMARK    9  A    between atoms: N_31  and  C_34 
REMARK   10  A    between atoms: C_34  and  C_35 
REMARK   11  A    between atoms: C_38  and  O_39 
REMARK   12  A    between atoms: C_6  and  C_7 
REMARK   13  A    between atoms: C_7  and  C_8 
REMARK   14  A    between atoms: C_8  and  N_9 
REMARK       I    between atoms: N_9  and  C_10 
REMARK       I    between atoms: C_10  and  N_12 
REMARK   15  A    between atoms: C_41  and  C_42 
REMARK   16  A    between atoms: C_41  and  N_48 
REMARK       I    between atoms: N_48  and  C_50 
REMARK   17  A    between atoms: C_50  and  C_52 
REMARK   18  A    between atoms: C_52  and  N_53 
REMARK   19  A    between atoms: C_52  and  C_72 
REMARK       I    between atoms: N_53  and  C_55 
REMARK   20  A    between atoms: C_55  and  C_57 
REMARK   21  A    between atoms: C_57  and  N_58 
REMARK       I    between atoms: N_58  and  C_60 
REMARK   22  A    between atoms: C_60  and  C_62 
REMARK   23  A    between atoms: C_62  and  N_63 
REMARK   24  A    between atoms: C_62  and  C_67 
REMARK   25  A    between atoms: C_67  and  C_68 
REMARK   26  A    between atoms: C_68  and  C_69 
REMARK   27  A    between atoms: C_72  and  C_73 
REMARK   28  A    between atoms: C_42  and  C_43 
REMARK       I    between atoms: C_43  and  N_44 
ROOT
HETATM    1  C           0      10.675  -6.522 -13.631  0.00  0.00     0.241 C 
HETATM    2  O           0       9.626  -6.609 -12.982  0.00  0.00    -0.271 OA
HETATM    3  N           0      10.703  -6.716 -14.970  0.00  0.00    -0.346 N 
HETATM    4  H           0      11.588  -6.671 -15.461  0.00  0.00     0.163 HD
ENDROOT
BRANCH   3   5
HETATM    5  C           0       9.456  -6.845 -15.722  0.00  0.00     0.176 C 
BRANCH   5   6
HETATM    6  C           0       9.543  -6.147 -17.089  0.00  0.00     0.036 C 
BRANCH   6   7
HETATM    7  C           0      10.033  -7.116 -18.171  0.00  0.00     0.023 C 
BRANCH   7   8
HETATM    8  C           0       9.280  -7.008 -19.497  0.00  0.00     0.138 C 
BRANCH   8   9
HETATM    9  N           0       8.782  -8.340 -19.828  0.00  0.00    -0.227 N 
HETATM   10  C           0       7.593  -8.847 -19.514  0.00  0.00     0.665 C 
HETATM   11  N           0       6.709  -8.165 -18.773  0.00  0.00    -0.235 N 
HETATM   12  N           0       7.297 -10.075 -19.979  0.00  0.00    -0.235 N 
HETATM   13  H           0       5.764  -8.500 -18.664  0.00  0.00     0.174 HD
HETATM   14  H           0       6.896  -7.217 -18.490  0.00  0.00     0.174 HD
HETATM   15  H           0       6.532 -10.598 -19.581  0.00  0.00     0.174 HD
HETATM   16  H           0       8.068 -10.580 -20.421  0.00  0.00     0.174 HD
HETATM   17  H           0       9.395  -8.997 -20.340  0.00  0.00     0.177 HD
ENDBRANCH   8   9
ENDBRANCH   7   8
ENDBRANCH   6   7
ENDBRANCH   5   6
BRANCH   5  18
HETATM   18  C           0       8.881  -8.277 -15.809  0.00  0.00     0.243 C 
HETATM   19  N           0       9.670  -9.354 -15.546  0.00  0.00    -0.337 N 
HETATM   20  C           0       9.067 -10.697 -15.515  0.00  0.00     0.179 C 
HETATM   21  C           0      11.136  -9.449 -15.711  0.00  0.00     0.127 C 
HETATM   22  C           0      10.217 -11.658 -15.929  0.00  0.00     0.037 C 
HETATM   23  C           0      11.291 -10.736 -16.528  0.00  0.00     0.022 C 
HETATM   24  O           0       7.677  -8.389 -16.057  0.00  0.00    -0.271 OA
BRANCH  20  25
HETATM   25  C           0       8.483 -11.114 -14.154  0.00  0.00     0.241 C 
HETATM   26  N           0       7.138 -11.031 -13.989  0.00  0.00    -0.344 N 
HETATM   27  H           0       6.554 -10.711 -14.756  0.00  0.00     0.163 HD
HETATM   28  O           0       9.252 -11.491 -13.266  0.00  0.00    -0.271 OA
BRANCH  26  29
HETATM   29  C           0       6.511 -11.223 -12.689  0.00  0.00     0.200 C 
BRANCH  29  30
HETATM   30  C           0       5.464 -12.352 -12.610  0.00  0.00     0.242 C 
HETATM   31  N           0       5.879 -13.610 -12.810  0.00  0.00    -0.354 N 
HETATM   32  H           0       6.855 -13.854 -12.960  0.00  0.00     0.162 HD
HETATM   33  O           0       4.284 -12.053 -12.370  0.00  0.00    -0.271 OA
BRANCH  31  34
HETATM   34  C           0       5.006 -14.765 -12.715  0.00  0.00     0.203 C 
BRANCH  34  35
HETATM   35  C           0       5.550 -15.930 -13.591  0.00  0.00     0.307 C 
HETATM   36  O           0       6.553 -16.546 -13.140  0.00  0.00    -0.186 OA
HETATM   37  O           0       4.924 -16.130 -14.660  0.00  0.00    -0.186 OA
ENDBRANCH  34  35
ENDBRANCH  31  34
ENDBRANCH  29  30
BRANCH  29  38
HETATM   38  C           0       5.886  -9.908 -12.175  0.00  0.00     0.199 C 
BRANCH  38  39
HETATM   39  O           0       6.606  -8.761 -12.589  0.00  0.00    -0.398 OA
HETATM   40  H           0       7.509  -8.792 -12.231  0.00  0.00     0.209 HD
ENDBRANCH  38  39
ENDBRANCH  29  38
ENDBRANCH  26  29
ENDBRANCH  20  25
ENDBRANCH   5  18
ENDBRANCH   3   5
BRANCH   1  41
HETATM   41  C           0      12.006  -6.139 -12.950  0.00  0.00     0.185 C 
BRANCH  41  42
HETATM   42  C           0      12.995  -5.469 -13.923  0.00  0.00     0.137 C 
BRANCH  42  43
HETATM   43  C           0      14.358  -5.128 -13.320  0.00  0.00     0.217 C 
HETATM   44  N           0      14.575  -3.805 -13.161  0.00  0.00    -0.370 N 
HETATM   45  H           0      15.497  -3.519 -12.864  0.00  0.00     0.159 HD
HETATM   46  H           0      13.910  -3.091 -13.484  0.00  0.00     0.159 HD
HETATM   47  O           0      15.186  -6.000 -13.045  0.00  0.00    -0.274 OA
ENDBRANCH  42  43
ENDBRANCH  41  42
BRANCH  41  48
HETATM   48  N           0      12.682  -7.296 -12.374  0.00  0.00    -0.346 N 
HETATM   49  H           0      13.301  -7.832 -12.968  0.00  0.00     0.163 HD
HETATM   50  C           0      12.456  -7.749 -11.124  0.00  0.00     0.241 C 
HETATM   51  O           0      11.633  -7.238 -10.355  0.00  0.00    -0.271 OA
BRANCH  50  52
HETATM   52  C           0      13.308  -8.947 -10.662  0.00  0.00     0.177 C 
BRANCH  52  53
HETATM   53  N           0      13.416  -9.981 -11.687  0.00  0.00    -0.346 N 
HETATM   54  H           0      14.053  -9.837 -12.460  0.00  0.00     0.163 HD
HETATM   55  C           0      12.784 -11.180 -11.567  0.00  0.00     0.236 C 
HETATM   56  O           0      12.086 -11.476 -10.601  0.00  0.00    -0.272 OA
BRANCH  55  57
HETATM   57  C           0      13.002 -12.186 -12.706  0.00  0.00     0.225 C 
BRANCH  57  58
HETATM   58  N           0      12.805 -13.582 -12.319  0.00  0.00    -0.351 N 
HETATM   59  H           0      11.972 -14.042 -12.658  0.00  0.00     0.163 HD
HETATM   60  C           0      13.839 -14.279 -11.792  0.00  0.00     0.248 C 
HETATM   61  O           0      14.923 -13.738 -11.546  0.00  0.00    -0.271 OA
BRANCH  60  62
HETATM   62  C           0      13.684 -15.766 -11.453  0.00  0.00     0.275 C 
BRANCH  62  63
HETATM   63  N           0      14.684 -16.248 -10.416  0.00  0.00    -0.066 N 
HETATM   64  H           0      15.568 -15.728 -10.449  0.00  0.00     0.275 HD
HETATM   65  H           0      14.332 -16.213  -9.454  0.00  0.00     0.275 HD
HETATM   66  H           0      14.916 -17.230 -10.596  0.00  0.00     0.275 HD
ENDBRANCH  62  63
BRANCH  62  67
HETATM   67  C           0      12.271 -16.183 -11.014  0.00  0.00     0.053 C 
BRANCH  67  68
HETATM   68  C           0      11.597 -17.204 -11.938  0.00  0.00     0.115 C 
BRANCH  68  69
HETATM   69  C           0      10.689 -16.643 -13.050  0.00  0.00     0.172 C 
HETATM   70  O           0      10.992 -15.544 -13.585  0.00  0.00    -0.648 OA
HETATM   71  O           0       9.663 -17.341 -13.337  0.00  0.00    -0.648 OA
ENDBRANCH  68  69
ENDBRANCH  67  68
ENDBRANCH  62  67
ENDBRANCH  60  62
ENDBRANCH  57  58
ENDBRANCH  55  57
ENDBRANCH  52  53
BRANCH  52  72
HETATM   72  C           0      14.728  -8.508 -10.238  0.00  0.00     0.038 C 
BRANCH  72  73
HETATM   73  C           0      15.203  -8.938  -8.836  0.00  0.00    -0.020 C 
HETATM   74  C           0      16.669  -8.567  -8.571  0.00  0.00     0.009 C 
HETATM   75  C           0      14.280  -8.314  -7.778  0.00  0.00     0.009 C 
ENDBRANCH  72  73
ENDBRANCH  52  72
ENDBRANCH  50  52
ENDBRANCH  41  48
ENDBRANCH   1  41
TORSDOF 28
ENDMDL
MODEL 2
REMARK VINA RESULT:      -6.1      4.330      9.040
REMARK  28 active torsions:
REMARK  status: ('A' for Active; 'I' for Inactive)
REMARK       I    between atoms: C_1  and  N_3 
REMARK    1  A    between atoms: C_1  and  C_41 
REMARK    2  A    between atoms: N_3  and  C_5 
REMARK    3  A    between atoms: C_5  and  C_6 
REMARK    4  A    between atoms: C_5  and  C_18 
REMARK       I    between atoms: C_18  and  N_19 
REMARK    5  A    between atoms: C_20  and  C_25 
REMARK       I    between atoms: C_25  and  N_26 
REMARK    6  A    between atoms: N_26  and  C_29 
REMARK    7  A    between atoms: C_29  and  C_30 
REMARK    8  A    between atoms: C_29  and  C_38 
REMARK       I    between atoms: C_30  and  N_31 
REMARK    9  A    between atoms: N_31  and  C_34 
REMARK   10  A    between atoms: C_34  and  C_35 
REMARK   11  A    between atoms: C_38  and  O_39 
REMARK   12  A    between atoms: C_6  and  C_7 
REMARK   13  A    between atoms: C_7  and  C_8 
REMARK   14  A    between atoms: C_8  and  N_9 
REMARK       I    between atoms: N_9  and  C_10 
REMARK       I    between atoms: C_10  and  N_12 
REMARK   15  A    between atoms: C_41  and  C_42 
REMARK   16  A    between atoms: C_41  and  N_48 
REMARK       I    between atoms: N_48  and  C_50 
REMARK   17  A    between atoms: C_50  and  C_52 
REMARK   18  A    between atoms: C_52  and  N_53 
REMARK   19  A    between atoms: C_52  and  C_72 
REMARK       I    between atoms: N_53  and  C_55 
REMARK   20  A    between atoms: C_55  and  C_57 
REMARK   21  A    between atoms: C_57  and  N_58 
REMARK       I    between atoms: N_58  and  C_60 
REMARK   22  A    between atoms: C_60  and  C_62 
REMARK   23  A    between atoms: C_62  and  N_63 
REMARK   24  A    between atoms: C_62  and  C_67 
REMARK   25  A    between atoms: C_67  and  C_68 
REMARK   26  A    between atoms: C_68  and  C_69 
REMARK   27  A    between atoms: C_72  and  C_73 
REMARK   28  A    between atoms: C_42  and  C_43 
REMARK       I    between atoms: C_43  and  N_44 
ROOT
HETATM    1  C           0      14.090 -14.619 -12.391  0.00  0.00     0.241 C 
HETATM    2  O           0      15.098 -14.279 -11.761  0.00  0.00    -0.271 OA
HETATM    3  N           0      13.243 -13.708 -12.926  0.00  0.00    -0.346 N 
HETATM    4  H           0      12.408 -14.026 -13.405  0.00  0.00     0.163 HD
ENDROOT
BRANCH   3   5
HETATM    5  C           0      13.597 -12.290 -12.940  0.00  0.00     0.176 C 
BRANCH   5   6
HETATM    6  C           0      13.286 -11.640 -14.298  0.00  0.00     0.036 C 
BRANCH   6   7
HETATM    7  C           0      11.990 -12.203 -14.892  0.00  0.00     0.023 C 
BRANCH   7   8
HETATM    8  C           0      10.820 -11.220 -14.888  0.00  0.00     0.138 C 
BRANCH   8   9
HETATM    9  N           0       9.751 -11.815 -14.089  0.00  0.00    -0.227 N 
HETATM   10  C           0       8.443 -11.724 -14.314  0.00  0.00     0.665 C 
HETATM   11  N           0       7.950 -10.989 -15.320  0.00  0.00    -0.235 N 
HETATM   12  N           0       7.622 -12.411 -13.499  0.00  0.00    -0.235 N 
HETATM   13  H           0       6.973 -11.044 -15.566  0.00  0.00     0.174 HD
HETATM   14  H           0       8.565 -10.538 -15.979  0.00  0.00     0.174 HD
HETATM   15  H           0       6.638 -12.191 -13.467  0.00  0.00     0.174 HD
HETATM   16  H           0       8.063 -12.837 -12.681  0.00  0.00     0.174 HD
HETATM   17  H           0       9.994 -12.353 -13.240  0.00  0.00     0.177 HD
ENDBRANCH   8   9
ENDBRANCH   7   8
ENDBRANCH   6   7
ENDBRANCH   5   6
BRANCH   5  18
HETATM   18  C           0      13.077 -11.467 -11.741  0.00  0.00     0.243 C 
HETATM   19  N           0      13.929 -10.696 -11.011  0.00  0.00    -0.337 N 
HETATM   20  C           0      13.387  -9.826  -9.953  0.00  0.00     0.179 C 
HETATM   21  C           0      15.378 -10.910 -10.813  0.00  0.00     0.127 C 
HETATM   22  C           0      14.536  -9.703  -8.914  0.00  0.00     0.037 C 
HETATM   23  C           0      15.516 -10.826  -9.289  0.00  0.00     0.022 C 
HETATM   24  O           0      11.862 -11.487 -11.525  0.00  0.00    -0.271 OA
BRANCH  20  25
HETATM   25  C           0      12.939  -8.433 -10.426  0.00  0.00     0.241 C 
HETATM   26  N           0      12.405  -8.326 -11.670  0.00  0.00    -0.344 N 
HETATM   27  H           0      12.305  -9.155 -12.249  0.00  0.00     0.163 HD
HETATM   28  O           0      13.092  -7.470  -9.671  0.00  0.00    -0.271 OA
BRANCH  26  29
HETATM   29  C           0      12.124  -7.033 -12.277  0.00  0.00     0.200 C 
BRANCH  29  30
HETATM   30  C           0      10.638  -6.631 -12.342  0.00  0.00     0.242 C 
HETATM   31  N           0       9.971  -6.871 -13.480  0.00  0.00    -0.354 N 
HETATM   32  H           0      10.388  -7.349 -14.276  0.00  0.00     0.162 HD
HETATM   33  O           0      10.120  -6.100 -11.348  0.00  0.00    -0.271 OA
BRANCH  31  34
HETATM   34  C           0       8.559  -6.587 -13.655  0.00  0.00     0.203 C 
BRANCH  34  35
HETATM   35  C           0       7.841  -7.795 -14.322  0.00  0.00     0.307 C 
HETATM   36  O           0       7.113  -8.497 -13.569  0.00  0.00    -0.186 OA
HETATM   37  O           0       8.068  -7.939 -15.548  0.00  0.00    -0.186 OA
ENDBRANCH  34  35
ENDBRANCH  31  34
ENDBRANCH  29  30
BRANCH  29  38
HETATM   38  C           0      12.744  -6.936 -13.687  0.00  0.00     0.199 C 
BRANCH  38  39
HETATM   39  O           0      12.588  -8.127 -14.437  0.00  0.00    -0.398 OA
HETATM   40  H           0      12.898  -7.986 -15.348  0.00  0.00     0.209 HD
ENDBRANCH  38  39
ENDBRANCH  29  38
ENDBRANCH  26  29
ENDBRANCH  20  25
ENDBRANCH   5  18
ENDBRANCH   3   5
BRANCH   1  41
HETATM   41  C           0      13.769 -16.107 -12.643  0.00  0.00     0.185 C 
BRANCH  41  42
HETATM   42  C           0      12.846 -16.314 -13.859  0.00  0.00     0.137 C 
BRANCH  42  43
HETATM   43  C           0      11.473 -16.899 -13.531  0.00  0.00     0.217 C 
HETATM   44  N           0      10.515 -15.971 -13.317  0.00  0.00    -0.370 N 
HETATM   45  H           0       9.615 -16.299 -12.995  0.00  0.00     0.159 HD
HETATM   46  H           0      10.712 -14.962 -13.306  0.00  0.00     0.159 HD
HETATM   47  O           0      11.286 -18.115 -13.438  0.00  0.00    -0.274 OA
ENDBRANCH  42  43
ENDBRANCH  41  42
BRANCH  41  48
HETATM   48  N           0      13.120 -16.731 -11.496  0.00  0.00    -0.346 N 
HETATM   49  H           0      12.167 -16.466 -11.283  0.00  0.00     0.163 HD
HETATM   50  C           0      13.747 -17.571 -10.646  0.00  0.00     0.241 C 
HETATM   51  O           0      14.943 -17.870 -10.748  0.00  0.00    -0.271 OA
BRANCH  50  52
HETATM   52  C           0      12.887 -18.185  -9.526  0.00  0.00     0.177 C 
BRANCH  52  53
HETATM   53  N           0      13.377 -17.841  -8.195  0.00  0.00    -0.346 N 
HETATM   54  H           0      13.700 -16.897  -8.024  0.00  0.00     0.163 HD
HETATM   55  C           0      13.295 -18.709  -7.152  0.00  0.00     0.236 C 
HETATM   56  O           0      12.808 -19.832  -7.252  0.00  0.00    -0.272 OA
BRANCH  55  57
HETATM   57  C           0      13.826 -18.210  -5.801  0.00  0.00     0.225 C 
BRANCH  57  58
HETATM   58  N           0      12.789 -17.983  -4.796  0.00  0.00    -0.351 N 
HETATM   59  H           0      11.831 -17.966  -5.116  0.00  0.00     0.163 HD
HETATM   60  C           0      13.099 -18.097  -3.483  0.00  0.00     0.248 C 
HETATM   61  O           0      14.259 -18.300  -3.109  0.00  0.00    -0.271 OA
BRANCH  60  62
HETATM   62  C           0      12.014 -17.945  -2.410  0.00  0.00     0.275 C 
BRANCH  62  63
HETATM   63  N           0      11.886 -19.167  -1.515  0.00  0.00    -0.066 N 
HETATM   64  H           0      10.978 -19.213  -1.040  0.00  0.00     0.275 HD
HETATM   65  H           0      12.034 -20.055  -2.004  0.00  0.00     0.275 HD
HETATM   66  H           0      12.600 -19.126  -0.780  0.00  0.00     0.275 HD
ENDBRANCH  62  63
BRANCH  62  67
HETATM   67  C           0      12.150 -16.694  -1.528  0.00  0.00     0.053 C 
BRANCH  67  68
HETATM   68  C           0      11.704 -15.391  -2.204  0.00  0.00     0.115 C 
BRANCH  68  69
HETATM   69  C           0      11.955 -14.084  -1.426  0.00  0.00     0.172 C 
HETATM   70  O           0      13.139 -13.682  -1.279  0.00  0.00    -0.648 OA
HETATM   71  O           0      10.920 -13.506  -0.961  0.00  0.00    -0.648 OA
ENDBRANCH  68  69
ENDBRANCH  67  68
ENDBRANCH  62  67
ENDBRANCH  60  62
ENDBRANCH  57  58
ENDBRANCH  55  57
ENDBRANCH  52  53
BRANCH  52  72
HETATM   72  C           0      11.405 -17.758  -9.644  0.00  0.00     0.038 C 
BRANCH  72  73
HETATM   73  C           0      10.372 -18.878  -9.871  0.00  0.00    -0.020 C 
HETATM   74  C           0       9.277 -18.475 -10.869  0.00  0.00     0.009 C 
HETATM   75  C           0      11.099 -20.148 -10.338  0.00  0.00     0.009 C 
ENDBRANCH  72  73
ENDBRANCH  52  72
ENDBRANCH  50  52
ENDBRANCH  41  48
ENDBRANCH   1  41
TORSDOF 28
ENDMDL
MODEL 3
REMARK VINA RESULT:      -6.1      3.250      9.247
REMARK  28 active torsions:
REMARK  status: ('A' for Active; 'I' for Inactive)
REMARK       I    between atoms: C_1  and  N_3 
REMARK    1  A    between atoms: C_1  and  C_41 
REMARK    2  A    between atoms: N_3  and  C_5 
REMARK    3  A    between atoms: C_5  and  C_6 
REMARK    4  A    between atoms: C_5  and  C_18 
REMARK       I    between atoms: C_18  and  N_19 
REMARK    5  A    between atoms: C_20  and  C_25 
REMARK       I    between atoms: C_25  and  N_26 
REMARK    6  A    between atoms: N_26  and  C_29 
REMARK    7  A    between atoms: C_29  and  C_30 
REMARK    8  A    between atoms: C_29  and  C_38 
REMARK       I    between atoms: C_30  and  N_31 
REMARK    9  A    between atoms: N_31  and  C_34 
REMARK   10  A    between atoms: C_34  and  C_35 
REMARK   11  A    between atoms: C_38  and  O_39 
REMARK   12  A    between atoms: C_6  and  C_7 
REMARK   13  A    between atoms: C_7  and  C_8 
REMARK   14  A    between atoms: C_8  and  N_9 
REMARK       I    between atoms: N_9  and  C_10 
REMARK       I    between atoms: C_10  and  N_12 
REMARK   15  A    between atoms: C_41  and  C_42 
REMARK   16  A    between atoms: C_41  and  N_48 
REMARK       I    between atoms: N_48  and  C_50 
REMARK   17  A    between atoms: C_50  and  C_52 
REMARK   18  A    between atoms: C_52  and  N_53 
REMARK   19  A    between atoms: C_52  and  C_72 
REMARK       I    between atoms: N_53  and  C_55 
REMARK   20  A    between atoms: C_55  and  C_57 
REMARK   21  A    between atoms: C_57  and  N_58 
REMARK       I    between atoms: N_58  and  C_60 
REMARK   22  A    between atoms: C_60  and  C_62 
REMARK   23  A    between atoms: C_62  and  N_63 
REMARK   24  A    between atoms: C_62  and  C_67 
REMARK   25  A    between atoms: C_67  and  C_68 
REMARK   26  A    between atoms: C_68  and  C_69 
REMARK   27  A    between atoms: C_72  and  C_73 
REMARK   28  A    between atoms: C_42  and  C_43 
REMARK       I    between atoms: C_43  and  N_44 
ROOT
HETATM    1  C           0       7.690  -6.287 -16.930  0.00  0.00     0.241 C 
HETATM    2  O           0       8.862  -5.934 -17.105  0.00  0.00    -0.271 OA
HETATM    3  N           0       7.326  -7.047 -15.870  0.00  0.00    -0.346 N 
HETATM    4  H           0       6.362  -7.345 -15.781  0.00  0.00     0.163 HD
ENDROOT
BRANCH   3   5
HETATM    5  C           0       8.277  -7.314 -14.793  0.00  0.00     0.176 C 
BRANCH   5   6
HETATM    6  C           0       7.592  -7.313 -13.417  0.00  0.00     0.036 C 
BRANCH   6   7
HETATM    7  C           0       6.153  -7.831 -13.520  0.00  0.00     0.023 C 
BRANCH   7   8
HETATM    8  C           0       5.900  -9.131 -12.756  0.00  0.00     0.138 C 
BRANCH   8   9
HETATM    9  N           0       6.857 -10.120 -13.245  0.00  0.00    -0.227 N 
HETATM   10  C           0       6.723 -11.442 -13.215  0.00  0.00     0.665 C 
HETATM   11  N           0       5.659 -12.030 -12.649  0.00  0.00    -0.235 N 
HETATM   12  N           0       7.691 -12.181 -13.787  0.00  0.00    -0.235 N 
HETATM   13  H           0       5.500 -13.020 -12.760  0.00  0.00     0.174 HD
HETATM   14  H           0       4.896 -11.480 -12.291  0.00  0.00     0.174 HD
HETATM   15  H           0       7.765 -13.166 -13.585  0.00  0.00     0.174 HD
HETATM   16  H           0       8.528 -11.668 -14.076  0.00  0.00     0.174 HD
HETATM   17  H           0       7.756  -9.799 -13.644  0.00  0.00     0.177 HD
ENDBRANCH   8   9
ENDBRANCH   7   8
ENDBRANCH   6   7
ENDBRANCH   5   6
BRANCH   5  18
HETATM   18  C           0       9.196  -8.537 -15.010  0.00  0.00     0.243 C 
HETATM   19  N           0      10.530  -8.451 -14.757  0.00  0.00    -0.337 N 
HETATM   20  C           0      11.361  -9.663 -14.853  0.00  0.00     0.179 C 
HETATM   21  C           0      11.375  -7.239 -14.820  0.00  0.00     0.127 C 
HETATM   22  C           0      12.775  -9.146 -15.240  0.00  0.00     0.037 C 
HETATM   23  C           0      12.541  -7.698 -15.701  0.00  0.00     0.022 C 
HETATM   24  O           0       8.659  -9.595 -15.352  0.00  0.00    -0.271 OA
BRANCH  20  25
HETATM   25  C           0      11.431 -10.505 -13.567  0.00  0.00     0.241 C 
HETATM   26  N           0      12.281 -10.101 -12.589  0.00  0.00    -0.344 N 
HETATM   27  H           0      12.837  -9.260 -12.719  0.00  0.00     0.163 HD
HETATM   28  O           0      10.729 -11.516 -13.479  0.00  0.00    -0.271 OA
BRANCH  26  29
HETATM   29  C           0      12.556 -10.925 -11.421  0.00  0.00     0.200 C 
BRANCH  29  30
HETATM   30  C           0      12.878 -10.162 -10.122  0.00  0.00     0.242 C 
HETATM   31  N           0      13.457  -8.957 -10.226  0.00  0.00    -0.354 N 
HETATM   32  H           0      13.644  -8.509 -11.120  0.00  0.00     0.162 HD
HETATM   33  O           0      12.595 -10.690  -9.035  0.00  0.00    -0.271 OA
BRANCH  31  34
HETATM   34  C           0      13.766  -8.116  -9.085  0.00  0.00     0.203 C 
BRANCH  34  35
HETATM   35  C           0      15.222  -8.375  -8.600  0.00  0.00     0.307 C 
HETATM   36  O           0      16.005  -8.896  -9.440  0.00  0.00    -0.186 OA
HETATM   37  O           0      15.458  -8.032  -7.417  0.00  0.00    -0.186 OA
ENDBRANCH  34  35
ENDBRANCH  31  34
ENDBRANCH  29  30
BRANCH  29  38
HETATM   38  C           0      13.682 -11.940 -11.711  0.00  0.00     0.199 C 
BRANCH  38  39
HETATM   39  O           0      13.837 -12.897 -10.679  0.00  0.00    -0.398 OA
HETATM   40  H           0      13.559 -12.514  -9.830  0.00  0.00     0.209 HD
ENDBRANCH  38  39
ENDBRANCH  29  38
ENDBRANCH  26  29
ENDBRANCH  20  25
ENDBRANCH   5  18
ENDBRANCH   3   5
BRANCH   1  41
HETATM   41  C           0       6.568  -5.837 -17.889  0.00  0.00     0.185 C 
BRANCH  41  42
HETATM   42  C           0       5.168  -5.957 -17.256  0.00  0.00     0.137 C 
BRANCH  42  43
HETATM   43  C           0       4.806  -4.836 -16.282  0.00  0.00     0.217 C 
HETATM   44  N           0       4.148  -3.803 -16.850  0.00  0.00    -0.370 N 
HETATM   45  H           0       3.976  -2.990 -16.274  0.00  0.00     0.159 HD
HETATM   46  H           0       3.971  -3.746 -17.860  0.00  0.00     0.159 HD
HETATM   47  O           0       5.130  -4.876 -15.092  0.00  0.00    -0.274 OA
ENDBRANCH  42  43
ENDBRANCH  41  42
BRANCH  41  48
HETATM   48  N           0       6.554  -6.615 -19.122  0.00  0.00    -0.346 N 
HETATM   49  H           0       6.281  -6.150 -19.978  0.00  0.00     0.163 HD
HETATM   50  C           0       6.792  -7.942 -19.173  0.00  0.00     0.241 C 
HETATM   51  O           0       7.021  -8.629 -18.170  0.00  0.00    -0.271 OA
BRANCH  50  52
HETATM   52  C           0       6.798  -8.587 -20.572  0.00  0.00     0.177 C 
BRANCH  52  53
HETATM   53  N           0       8.139  -8.963 -21.006  0.00  0.00    -0.346 N 
HETATM   54  H           0       8.472  -9.899 -20.808  0.00  0.00     0.163 HD
HETATM   55  C           0       8.904  -8.141 -21.774  0.00  0.00     0.236 C 
HETATM   56  O           0       8.525  -7.037 -22.155  0.00  0.00    -0.272 OA
BRANCH  55  57
HETATM   57  C           0      10.285  -8.672 -22.181  0.00  0.00     0.225 C 
BRANCH  57  58
HETATM   58  N           0      10.431 -10.121 -22.061  0.00  0.00    -0.351 N 
HETATM   59  H           0       9.678 -10.692 -22.418  0.00  0.00     0.163 HD
HETATM   60  C           0      11.643 -10.646 -21.766  0.00  0.00     0.248 C 
HETATM   61  O           0      12.612  -9.925 -21.504  0.00  0.00    -0.271 OA
BRANCH  60  62
HETATM   62  C           0      11.843 -12.165 -21.715  0.00  0.00     0.275 C 
BRANCH  62  63
HETATM   63  N           0      13.305 -12.571 -21.626  0.00  0.00    -0.066 N 
HETATM   64  H           0      13.744 -12.665 -22.548  0.00  0.00     0.275 HD
HETATM   65  H           0      13.878 -11.934 -21.065  0.00  0.00     0.275 HD
HETATM   66  H           0      13.376 -13.489 -21.173  0.00  0.00     0.275 HD
ENDBRANCH  62  63
BRANCH  62  67
HETATM   67  C           0      11.059 -12.881 -20.603  0.00  0.00     0.053 C 
BRANCH  67  68
HETATM   68  C           0      11.181 -12.230 -19.221  0.00  0.00     0.115 C 
BRANCH  68  69
HETATM   69  C           0       9.892 -11.646 -18.611  0.00  0.00     0.172 C 
HETATM   70  O           0       9.057 -11.089 -19.372  0.00  0.00    -0.648 OA
HETATM   71  O           0       9.774 -11.756 -17.348  0.00  0.00    -0.648 OA
ENDBRANCH  68  69
ENDBRANCH  67  68
ENDBRANCH  62  67
ENDBRANCH  60  62
ENDBRANCH  57  58
ENDBRANCH  55  57
ENDBRANCH  52  53
BRANCH  52  72
HETATM   72  C           0       5.881  -9.830 -20.632  0.00  0.00     0.038 C 
BRANCH  72  73
HETATM   73  C           0       4.362  -9.581 -20.569  0.00  0.00    -0.020 C 
HETATM   74  C           0       3.907  -8.470 -21.526  0.00  0.00     0.009 C 
HETATM   75  C           0       3.623 -10.896 -20.867  0.00  0.00     0.009 C 
ENDBRANCH  72  73
ENDBRANCH  52  72
ENDBRANCH  50  52
ENDBRANCH  41  48
ENDBRANCH   1  41
TORSDOF 28
ENDMDL
MODEL 4
REMARK VINA RESULT:      -5.9     14.096     19.335
REMARK  28 active torsions:
REMARK  status: ('A' for Active; 'I' for Inactive)
REMARK       I    between atoms: C_1  and  N_3 
REMARK    1  A    between atoms: C_1  and  C_41 
REMARK    2  A    between atoms: N_3  and  C_5 
REMARK    3  A    between atoms: C_5  and  C_6 
REMARK    4  A    between atoms: C_5  and  C_18 
REMARK       I    between atoms: C_18  and  N_19 
REMARK    5  A    between atoms: C_20  and  C_25 
REMARK       I    between atoms: C_25  and  N_26 
REMARK    6  A    between atoms: N_26  and  C_29 
REMARK    7  A    between atoms: C_29  and  C_30 
REMARK    8  A    between atoms: C_29  and  C_38 
REMARK       I    between atoms: C_30  and  N_31 
REMARK    9  A    between atoms: N_31  and  C_34 
REMARK   10  A    between atoms: C_34  and  C_35 
REMARK   11  A    between atoms: C_38  and  O_39 
REMARK   12  A    between atoms: C_6  and  C_7 
REMARK   13  A    between atoms: C_7  and  C_8 
REMARK   14  A    between atoms: C_8  and  N_9 
REMARK       I    between atoms: N_9  and  C_10 
REMARK       I    between atoms: C_10  and  N_12 
REMARK   15  A    between atoms: C_41  and  C_42 
REMARK   16  A    between atoms: C_41  and  N_48 
REMARK       I    between atoms: N_48  and  C_50 
REMARK   17  A    between atoms: C_50  and  C_52 
REMARK   18  A    between atoms: C_52  and  N_53 
REMARK   19  A    between atoms: C_52  and  C_72 
REMARK       I    between atoms: N_53  and  C_55 
REMARK   20  A    between atoms: C_55  and  C_57 
REMARK   21  A    between atoms: C_57  and  N_58 
REMARK       I    between atoms: N_58  and  C_60 
REMARK   22  A    between atoms: C_60  and  C_62 
REMARK   23  A    between atoms: C_62  and  N_63 
REMARK   24  A    between atoms: C_62  and  C_67 
REMARK   25  A    between atoms: C_67  and  C_68 
REMARK   26  A    between atoms: C_68  and  C_69 
REMARK   27  A    between atoms: C_72  and  C_73 
REMARK   28  A    between atoms: C_42  and  C_43 
REMARK       I    between atoms: C_43  and  N_44 
ROOT
HETATM    1  C           0      -6.541 -12.032  -5.660  0.00  0.00     0.241 C 
HETATM    2  O           0      -5.319 -12.124  -5.827  0.00  0.00    -0.271 OA
HETATM    3  N           0      -7.421 -12.611  -6.510  0.00  0.00    -0.346 N 
HETATM    4  H           0      -8.415 -12.483  -6.360  0.00  0.00     0.163 HD
ENDROOT
BRANCH   3   5
HETATM    5  C           0      -6.951 -13.526  -7.548  0.00  0.00     0.176 C 
BRANCH   5   6
HETATM    6  C           0      -5.725 -12.965  -8.287  0.00  0.00     0.036 C 
BRANCH   6   7
HETATM    7  C           0      -6.019 -12.784  -9.780  0.00  0.00     0.023 C 
BRANCH   7   8
HETATM    8  C           0      -5.862 -14.059 -10.609  0.00  0.00     0.138 C 
BRANCH   8   9
HETATM    9  N           0      -4.628 -13.932 -11.379  0.00  0.00    -0.227 N 
HETATM   10  C           0      -4.487 -14.097 -12.691  0.00  0.00     0.665 C 
HETATM   11  N           0      -5.511 -14.475 -13.468  0.00  0.00    -0.235 N 
HETATM   12  N           0      -3.273 -13.861 -13.222  0.00  0.00    -0.235 N 
HETATM   13  H           0      -5.427 -14.458 -14.474  0.00  0.00     0.174 HD
HETATM   14  H           0      -6.438 -14.577 -13.087  0.00  0.00     0.174 HD
HETATM   15  H           0      -3.048 -14.198 -14.145  0.00  0.00     0.174 HD
HETATM   16  H           0      -2.517 -13.708 -12.551  0.00  0.00     0.174 HD
HETATM   17  H           0      -3.745 -13.711 -10.887  0.00  0.00     0.177 HD
ENDBRANCH   8   9
ENDBRANCH   7   8
ENDBRANCH   6   7
ENDBRANCH   5   6
BRANCH   5  18
HETATM   18  C           0      -6.770 -14.994  -7.103  0.00  0.00     0.243 C 
HETATM   19  N           0      -7.578 -15.970  -7.598  0.00  0.00    -0.337 N 
HETATM   20  C           0      -7.305 -17.376  -7.253  0.00  0.00     0.179 C 
HETATM   21  C           0      -8.965 -15.819  -8.086  0.00  0.00     0.127 C 
HETATM   22  C           0      -8.692 -18.076  -7.310  0.00  0.00     0.037 C 
HETATM   23  C           0      -9.705 -16.920  -7.319  0.00  0.00     0.022 C 
HETATM   24  O           0      -5.828 -15.243  -6.344  0.00  0.00    -0.271 OA
BRANCH  20  25
HETATM   25  C           0      -6.305 -18.089  -8.180  0.00  0.00     0.241 C 
HETATM   26  N           0      -6.111 -17.573  -9.421  0.00  0.00    -0.344 N 
HETATM   27  H           0      -6.613 -16.735  -9.703  0.00  0.00     0.163 HD
HETATM   28  O           0      -5.733 -19.102  -7.772  0.00  0.00    -0.271 OA
BRANCH  26  29
HETATM   29  C           0      -5.333 -18.274 -10.432  0.00  0.00     0.200 C 
BRANCH  29  30
HETATM   30  C           0      -3.939 -17.689 -10.731  0.00  0.00     0.242 C 
HETATM   31  N           0      -3.109 -17.481  -9.699  0.00  0.00    -0.354 N 
HETATM   32  H           0      -3.340 -17.739  -8.743  0.00  0.00     0.162 HD
HETATM   33  O           0      -3.643 -17.429 -11.907  0.00  0.00    -0.271 OA
BRANCH  31  34
HETATM   34  C           0      -1.755 -16.982  -9.849  0.00  0.00     0.203 C 
BRANCH  34  35
HETATM   35  C           0      -1.644 -15.537  -9.284  0.00  0.00     0.307 C 
HETATM   36  O           0      -0.748 -15.344  -8.418  0.00  0.00    -0.186 OA
HETATM   37  O           0      -2.464 -14.715  -9.759  0.00  0.00    -0.186 OA
ENDBRANCH  34  35
ENDBRANCH  31  34
ENDBRANCH  29  30
BRANCH  29  38
HETATM   38  C           0      -6.127 -18.406 -11.749  0.00  0.00     0.199 C 
BRANCH  38  39
HETATM   39  O           0      -6.508 -17.153 -12.287  0.00  0.00    -0.398 OA
HETATM   40  H           0      -6.899 -17.278 -13.169  0.00  0.00     0.209 HD
ENDBRANCH  38  39
ENDBRANCH  29  38
ENDBRANCH  26  29
ENDBRANCH  20  25
ENDBRANCH   5  18
ENDBRANCH   3   5
BRANCH   1  41
HETATM   41  C           0      -7.128 -11.289  -4.442  0.00  0.00     0.185 C 
BRANCH  41  42
HETATM   42  C           0      -8.428 -11.935  -3.927  0.00  0.00     0.137 C 
BRANCH  42  43
HETATM   43  C           0      -9.121 -11.172  -2.798  0.00  0.00     0.217 C 
HETATM   44  N           0      -9.077 -11.797  -1.602  0.00  0.00    -0.370 N 
HETATM   45  H           0      -9.609 -11.388  -0.846  0.00  0.00     0.159 HD
HETATM   46  H           0      -8.676 -12.735  -1.480  0.00  0.00     0.159 HD
HETATM   47  O           0      -9.696 -10.099  -2.993  0.00  0.00    -0.274 OA
ENDBRANCH  42  43
ENDBRANCH  41  42
BRANCH  41  48
HETATM   48  N           0      -7.426  -9.893  -4.740  0.00  0.00    -0.346 N 
HETATM   49  H           0      -8.370  -9.655  -5.018  0.00  0.00     0.163 HD
HETATM   50  C           0      -6.497  -8.916  -4.760  0.00  0.00     0.241 C 
HETATM   51  O           0      -5.295  -9.119  -4.549  0.00  0.00    -0.271 OA
BRANCH  50  52
HETATM   52  C           0      -7.006  -7.488  -5.033  0.00  0.00     0.177 C 
BRANCH  52  53
HETATM   53  N           0      -7.184  -7.224  -6.457  0.00  0.00    -0.346 N 
HETATM   54  H           0      -7.531  -7.966  -7.052  0.00  0.00     0.163 HD
HETATM   55  C           0      -7.017  -5.981  -6.985  0.00  0.00     0.236 C 
HETATM   56  O           0      -6.710  -5.003  -6.309  0.00  0.00    -0.272 OA
BRANCH  55  57
HETATM   57  C           0      -7.260  -5.838  -8.493  0.00  0.00     0.225 C 
BRANCH  57  58
HETATM   58  N           0      -6.043  -5.864  -9.302  0.00  0.00    -0.351 N 
HETATM   59  H           0      -5.272  -5.288  -8.994  0.00  0.00     0.163 HD
HETATM   60  C           0      -5.879  -6.838 -10.228  0.00  0.00     0.248 C 
HETATM   61  O           0      -6.774  -7.655 -10.470  0.00  0.00    -0.271 OA
BRANCH  60  62
HETATM   62  C           0      -4.578  -6.936 -11.033  0.00  0.00     0.275 C 
BRANCH  62  63
HETATM   63  N           0      -4.598  -8.055 -12.062  0.00  0.00    -0.066 N 
HETATM   64  H           0      -3.784  -8.030 -12.686  0.00  0.00     0.275 HD
HETATM   65  H           0      -4.656  -8.992 -11.653  0.00  0.00     0.275 HD
HETATM   66  H           0      -5.426  -7.954 -12.658  0.00  0.00     0.275 HD
ENDBRANCH  62  63
BRANCH  62  67
HETATM   67  C           0      -4.147  -5.632 -11.723  0.00  0.00     0.053 C 
BRANCH  67  68
HETATM   68  C           0      -2.980  -4.909 -11.040  0.00  0.00     0.115 C 
BRANCH  68  69
HETATM   69  C           0      -2.415  -3.668 -11.758  0.00  0.00     0.172 C 
HETATM   70  O           0      -2.004  -2.700 -11.066  0.00  0.00    -0.648 OA
HETATM   71  O           0      -2.427  -3.708 -13.031  0.00  0.00    -0.648 OA
ENDBRANCH  68  69
ENDBRANCH  67  68
ENDBRANCH  62  67
ENDBRANCH  60  62
ENDBRANCH  57  58
ENDBRANCH  55  57
ENDBRANCH  52  53
BRANCH  52  72
HETATM   72  C           0      -8.336  -7.205  -4.298  0.00  0.00     0.038 C 
BRANCH  72  73
HETATM   73  C           0      -8.238  -6.569  -2.898  0.00  0.00    -0.020 C 
HETATM   74  C           0      -7.756  -5.112  -2.944  0.00  0.00     0.009 C 
HETATM   75  C           0      -9.604  -6.672  -2.201  0.00  0.00     0.009 C 
ENDBRANCH  72  73
ENDBRANCH  52  72
ENDBRANCH  50  52
ENDBRANCH  41  48
ENDBRANCH   1  41
TORSDOF 28
ENDMDL
MODEL 5
REMARK VINA RESULT:      -5.9     23.692     28.746
REMARK  28 active torsions:
REMARK  status: ('A' for Active; 'I' for Inactive)
REMARK       I    between atoms: C_1  and  N_3 
REMARK    1  A    between atoms: C_1  and  C_41 
REMARK    2  A    between atoms: N_3  and  C_5 
REMARK    3  A    between atoms: C_5  and  C_6 
REMARK    4  A    between atoms: C_5  and  C_18 
REMARK       I    between atoms: C_18  and  N_19 
REMARK    5  A    between atoms: C_20  and  C_25 
REMARK       I    between atoms: C_25  and  N_26 
REMARK    6  A    between atoms: N_26  and  C_29 
REMARK    7  A    between atoms: C_29  and  C_30 
REMARK    8  A    between atoms: C_29  and  C_38 
REMARK       I    between atoms: C_30  and  N_31 
REMARK    9  A    between atoms: N_31  and  C_34 
REMARK   10  A    between atoms: C_34  and  C_35 
REMARK   11  A    between atoms: C_38  and  O_39 
REMARK   12  A    between atoms: C_6  and  C_7 
REMARK   13  A    between atoms: C_7  and  C_8 
REMARK   14  A    between atoms: C_8  and  N_9 
REMARK       I    between atoms: N_9  and  C_10 
REMARK       I    between atoms: C_10  and  N_12 
REMARK   15  A    between atoms: C_41  and  C_42 
REMARK   16  A    between atoms: C_41  and  N_48 
REMARK       I    between atoms: N_48  and  C_50 
REMARK   17  A    between atoms: C_50  and  C_52 
REMARK   18  A    between atoms: C_52  and  N_53 
REMARK   19  A    between atoms: C_52  and  C_72 
REMARK       I    between atoms: N_53  and  C_55 
REMARK   20  A    between atoms: C_55  and  C_57 
REMARK   21  A    between atoms: C_57  and  N_58 
REMARK       I    between atoms: N_58  and  C_60 
REMARK   22  A    between atoms: C_60  and  C_62 
REMARK   23  A    between atoms: C_62  and  N_63 
REMARK   24  A    between atoms: C_62  and  C_67 
REMARK   25  A    between atoms: C_67  and  C_68 
REMARK   26  A    between atoms: C_68  and  C_69 
REMARK   27  A    between atoms: C_72  and  C_73 
REMARK   28  A    between atoms: C_42  and  C_43 
REMARK       I    between atoms: C_43  and  N_44 
ROOT
HETATM    1  C           0      -7.659 -27.482  -5.622  0.00  0.00     0.241 C 
HETATM    2  O           0      -8.505 -26.582  -5.674  0.00  0.00    -0.271 OA
HETATM    3  N           0      -7.008 -27.782  -4.473  0.00  0.00    -0.346 N 
HETATM    4  H           0      -6.295 -28.502  -4.479  0.00  0.00     0.163 HD
ENDROOT
BRANCH   3   5
HETATM    5  C           0      -7.425 -27.177  -3.210  0.00  0.00     0.176 C 
BRANCH   5   6
HETATM    6  C           0      -7.476 -28.212  -2.074  0.00  0.00     0.036 C 
BRANCH   6   7
HETATM    7  C           0      -8.118 -29.520  -2.552  0.00  0.00     0.023 C 
BRANCH   7   8
HETATM    8  C           0      -9.638 -29.565  -2.397  0.00  0.00     0.138 C 
BRANCH   8   9
HETATM    9  N           0     -10.179 -30.239  -3.574  0.00  0.00    -0.227 N 
HETATM   10  C           0     -10.594 -31.500  -3.649  0.00  0.00     0.665 C 
HETATM   11  N           0     -10.497 -32.338  -2.607  0.00  0.00    -0.235 N 
HETATM   12  N           0     -11.131 -31.911  -4.812  0.00  0.00    -0.235 N 
HETATM   13  H           0     -10.944 -33.242  -2.632  0.00  0.00     0.174 HD
HETATM   14  H           0     -10.169 -32.012  -1.712  0.00  0.00     0.174 HD
HETATM   15  H           0     -11.235 -32.896  -5.004  0.00  0.00     0.174 HD
HETATM   16  H           0     -11.048 -31.258  -5.595  0.00  0.00     0.174 HD
HETATM   17  H           0     -10.242 -29.723  -4.468  0.00  0.00     0.177 HD
ENDBRANCH   8   9
ENDBRANCH   7   8
ENDBRANCH   6   7
ENDBRANCH   5   6
BRANCH   5  18
HETATM   18  C           0      -6.676 -25.884  -2.817  0.00  0.00     0.243 C 
HETATM   19  N           0      -7.365 -24.788  -2.397  0.00  0.00    -0.337 N 
HETATM   20  C           0      -6.623 -23.612  -1.911  0.00  0.00     0.179 C 
HETATM   21  C           0      -8.750 -24.413  -2.756  0.00  0.00     0.127 C 
HETATM   22  C           0      -7.547 -22.402  -2.223  0.00  0.00     0.037 C 
HETATM   23  C           0      -8.588 -22.958  -3.208  0.00  0.00     0.022 C 
HETATM   24  O           0      -5.442 -25.916  -2.835  0.00  0.00    -0.271 OA
BRANCH  20  25
HETATM   25  C           0      -6.266 -23.644  -0.415  0.00  0.00     0.241 C 
HETATM   26  N           0      -5.318 -24.526  -0.007  0.00  0.00    -0.344 N 
HETATM   27  H           0      -4.863 -25.129  -0.688  0.00  0.00     0.163 HD
HETATM   28  O           0      -6.861 -22.886   0.355  0.00  0.00    -0.271 OA
BRANCH  26  29
HETATM   29  C           0      -5.044 -24.762   1.403  0.00  0.00     0.200 C 
BRANCH  29  30
HETATM   30  C           0      -3.607 -25.203   1.743  0.00  0.00     0.242 C 
HETATM   31  N           0      -2.637 -24.923   0.861  0.00  0.00    -0.354 N 
HETATM   32  H           0      -2.801 -24.391   0.009  0.00  0.00     0.162 HD
HETATM   33  O           0      -3.405 -25.802   2.810  0.00  0.00    -0.271 OA
BRANCH  31  34
HETATM   34  C           0      -1.239 -25.239   1.082  0.00  0.00     0.203 C 
BRANCH  34  35
HETATM   35  C           0      -0.497 -24.018   1.698  0.00  0.00     0.307 C 
HETATM   36  O           0       0.600 -24.262   2.268  0.00  0.00    -0.186 OA
HETATM   37  O           0      -1.079 -22.915   1.557  0.00  0.00    -0.186 OA
ENDBRANCH  34  35
ENDBRANCH  31  34
ENDBRANCH  29  30
BRANCH  29  38
HETATM   38  C           0      -6.045 -25.774   2.000  0.00  0.00     0.199 C 
BRANCH  38  39
HETATM   39  O           0      -5.785 -27.106   1.596  0.00  0.00    -0.398 OA
HETATM   40  H           0      -6.208 -27.726   2.214  0.00  0.00     0.209 HD
ENDBRANCH  38  39
ENDBRANCH  29  38
ENDBRANCH  26  29
ENDBRANCH  20  25
ENDBRANCH   5  18
ENDBRANCH   3   5
BRANCH   1  41
HETATM   41  C           0      -7.334 -28.346  -6.858  0.00  0.00     0.185 C 
BRANCH  41  42
HETATM   42  C           0      -6.683 -27.532  -7.993  0.00  0.00     0.137 C 
BRANCH  42  43
HETATM   43  C           0      -7.601 -27.236  -9.179  0.00  0.00     0.217 C 
HETATM   44  N           0      -7.138 -27.694 -10.362  0.00  0.00    -0.370 N 
HETATM   45  H           0      -7.653 -27.435 -11.192  0.00  0.00     0.159 HD
HETATM   46  H           0      -6.217 -28.137 -10.464  0.00  0.00     0.159 HD
HETATM   47  O           0      -8.651 -26.601  -9.050  0.00  0.00    -0.274 OA
ENDBRANCH  42  43
ENDBRANCH  41  42
BRANCH  41  48
HETATM   48  N           0      -8.523 -28.985  -7.410  0.00  0.00    -0.346 N 
HETATM   49  H           0      -9.104 -28.449  -8.041  0.00  0.00     0.163 HD
HETATM   50  C           0      -8.944 -30.216  -7.055  0.00  0.00     0.241 C 
HETATM   51  O           0      -8.373 -30.910  -6.206  0.00  0.00    -0.271 OA
BRANCH  50  52
HETATM   52  C           0     -10.186 -30.756  -7.789  0.00  0.00     0.177 C 
BRANCH  52  53
HETATM   53  N           0     -11.135 -29.700  -8.129  0.00  0.00    -0.346 N 
HETATM   54  H           0     -10.839 -28.960  -8.752  0.00  0.00     0.163 HD
HETATM   55  C           0     -12.436 -29.749  -7.735  0.00  0.00     0.236 C 
HETATM   56  O           0     -12.902 -30.674  -7.074  0.00  0.00    -0.272 OA
BRANCH  55  57
HETATM   57  C           0     -13.332 -28.585  -8.181  0.00  0.00     0.225 C 
BRANCH  57  58
HETATM   58  N           0     -13.751 -27.700  -7.096  0.00  0.00    -0.351 N 
HETATM   59  H           0     -14.376 -28.084  -6.402  0.00  0.00     0.163 HD
HETATM   60  C           0     -13.087 -26.538  -6.891  0.00  0.00     0.248 C 
HETATM   61  O           0     -12.191 -26.163  -7.656  0.00  0.00    -0.271 OA
BRANCH  60  62
HETATM   62  C           0     -13.453 -25.629  -5.711  0.00  0.00     0.275 C 
BRANCH  62  63
HETATM   63  N           0     -14.736 -26.048  -5.013  0.00  0.00    -0.066 N 
HETATM   64  H           0     -15.349 -26.606  -5.617  0.00  0.00     0.275 HD
HETATM   65  H           0     -14.583 -26.572  -4.146  0.00  0.00     0.275 HD
HETATM   66  H           0     -15.268 -25.212  -4.748  0.00  0.00     0.275 HD
ENDBRANCH  62  63
BRANCH  62  67
HETATM   67  C           0     -12.344 -25.463  -4.659  0.00  0.00     0.053 C 
BRANCH  67  68
HETATM   68  C           0     -12.333 -26.546  -3.574  0.00  0.00     0.115 C 
BRANCH  68  69
HETATM   69  C           0     -12.090 -26.076  -2.126  0.00  0.00     0.172 C 
HETATM   70  O           0     -11.346 -26.765  -1.380  0.00  0.00    -0.648 OA
HETATM   71  O           0     -12.692 -25.009  -1.778  0.00  0.00    -0.648 OA
ENDBRANCH  68  69
ENDBRANCH  67  68
ENDBRANCH  62  67
ENDBRANCH  60  62
ENDBRANCH  57  58
ENDBRANCH  55  57
ENDBRANCH  52  53
BRANCH  52  72
HETATM   72  C           0      -9.802 -31.521  -9.077  0.00  0.00     0.038 C 
BRANCH  72  73
HETATM   73  C           0     -10.582 -32.814  -9.380  0.00  0.00    -0.020 C 
HETATM   74  C           0      -9.781 -33.795 -10.249  0.00  0.00     0.009 C 
HETATM   75  C           0     -11.002 -33.472  -8.056  0.00  0.00     0.009 C 
ENDBRANCH  72  73
ENDBRANCH  52  72
ENDBRANCH  50  52
ENDBRANCH  41  48
ENDBRANCH   1  41
TORSDOF 28
ENDMDL
MODEL 6
REMARK VINA RESULT:      -5.8     15.056     19.331
REMARK  28 active torsions:
REMARK  status: ('A' for Active; 'I' for Inactive)
REMARK       I    between atoms: C_1  and  N_3 
REMARK    1  A    between atoms: C_1  and  C_41 
REMARK    2  A    between atoms: N_3  and  C_5 
REMARK    3  A    between atoms: C_5  and  C_6 
REMARK    4  A    between atoms: C_5  and  C_18 
REMARK       I    between atoms: C_18  and  N_19 
REMARK    5  A    between atoms: C_20  and  C_25 
REMARK       I    between atoms: C_25  and  N_26 
REMARK    6  A    between atoms: N_26  and  C_29 
REMARK    7  A    between atoms: C_29  and  C_30 
REMARK    8  A    between atoms: C_29  and  C_38 
REMARK       I    between atoms: C_30  and  N_31 
REMARK    9  A    between atoms: N_31  and  C_34 
REMARK   10  A    between atoms: C_34  and  C_35 
REMARK   11  A    between atoms: C_38  and  O_39 
REMARK   12  A    between atoms: C_6  and  C_7 
REMARK   13  A    between atoms: C_7  and  C_8 
REMARK   14  A    between atoms: C_8  and  N_9 
REMARK       I    between atoms: N_9  and  C_10 
REMARK       I    between atoms: C_10  and  N_12 
REMARK   15  A    between atoms: C_41  and  C_42 
REMARK   16  A    between atoms: C_41  and  N_48 
REMARK       I    between atoms: N_48  and  C_50 
REMARK   17  A    between atoms: C_50  and  C_52 
REMARK   18  A    between atoms: C_52  and  N_53 
REMARK   19  A    between atoms: C_52  and  C_72 
REMARK       I    between atoms: N_53  and  C_55 
REMARK   20  A    between atoms: C_55  and  C_57 
REMARK   21  A    between atoms: C_57  and  N_58 
REMARK       I    between atoms: N_58  and  C_60 
REMARK   22  A    between atoms: C_60  and  C_62 
REMARK   23  A    between atoms: C_62  and  N_63 
REMARK   24  A    between atoms: C_62  and  C_67 
REMARK   25  A    between atoms: C_67  and  C_68 
REMARK   26  A    between atoms: C_68  and  C_69 
REMARK   27  A    between atoms: C_72  and  C_73 
REMARK   28  A    between atoms: C_42  and  C_43 
REMARK       I    between atoms: C_43  and  N_44 
ROOT
HETATM    1  C           0      -6.495 -12.217 -12.129  0.00  0.00     0.241 C 
HETATM    2  O           0      -7.635 -11.997 -12.555  0.00  0.00    -0.271 OA
HETATM    3  N           0      -6.005 -11.576 -11.042  0.00  0.00    -0.346 N 
HETATM    4  H           0      -5.053 -11.757 -10.745  0.00  0.00     0.163 HD
ENDROOT
BRANCH   3   5
HETATM    5  C           0      -6.880 -10.741 -10.221  0.00  0.00     0.176 C 
BRANCH   5   6
HETATM    6  C           0      -6.760 -11.089  -8.728  0.00  0.00     0.036 C 
BRANCH   6   7
HETATM    7  C           0      -8.128 -11.447  -8.136  0.00  0.00     0.023 C 
BRANCH   7   8
HETATM    8  C           0      -8.508 -10.630  -6.901  0.00  0.00     0.138 C 
BRANCH   8   9
HETATM    9  N           0      -8.102 -11.397  -5.726  0.00  0.00    -0.227 N 
HETATM   10  C           0      -7.770 -10.911  -4.533  0.00  0.00     0.665 C 
HETATM   11  N           0      -7.719  -9.593  -4.298  0.00  0.00    -0.235 N 
HETATM   12  N           0      -7.496 -11.794  -3.555  0.00  0.00    -0.235 N 
HETATM   13  H           0      -7.607  -9.243  -3.359  0.00  0.00     0.174 HD
HETATM   14  H           0      -7.999  -8.931  -5.005  0.00  0.00     0.174 HD
HETATM   15  H           0      -7.013 -11.495  -2.722  0.00  0.00     0.174 HD
HETATM   16  H           0      -7.428 -12.772  -3.847  0.00  0.00     0.174 HD
HETATM   17  H           0      -8.032 -12.426  -5.794  0.00  0.00     0.177 HD
ENDBRANCH   8   9
ENDBRANCH   7   8
ENDBRANCH   6   7
ENDBRANCH   5   6
BRANCH   5  18
HETATM   18  C           0      -6.797  -9.224 -10.497  0.00  0.00     0.243 C 
HETATM   19  N           0      -7.866  -8.419 -10.253  0.00  0.00    -0.337 N 
HETATM   20  C           0      -7.721  -6.961 -10.406  0.00  0.00     0.179 C 
HETATM   21  C           0      -9.295  -8.800 -10.273  0.00  0.00     0.127 C 
HETATM   22  C           0      -9.142  -6.458 -10.785  0.00  0.00     0.037 C 
HETATM   23  C           0      -9.907  -7.730 -11.184  0.00  0.00     0.022 C 
HETATM   24  O           0      -5.711  -8.776 -10.877  0.00  0.00    -0.271 OA
BRANCH  20  25
HETATM   25  C           0      -7.206  -6.225  -9.157  0.00  0.00     0.241 C 
HETATM   26  N           0      -8.075  -6.027  -8.134  0.00  0.00    -0.344 N 
HETATM   27  H           0      -9.029  -6.371  -8.207  0.00  0.00     0.163 HD
HETATM   28  O           0      -6.037  -5.833  -9.138  0.00  0.00    -0.271 OA
BRANCH  26  29
HETATM   29  C           0      -7.741  -5.185  -6.994  0.00  0.00     0.200 C 
BRANCH  29  30
HETATM   30  C           0      -7.382  -5.929  -5.693  0.00  0.00     0.242 C 
HETATM   31  N           0      -7.544  -5.279  -4.532  0.00  0.00    -0.354 N 
HETATM   32  H           0      -7.938  -4.344  -4.471  0.00  0.00     0.162 HD
HETATM   33  O           0      -6.954  -7.091  -5.770  0.00  0.00    -0.271 OA
BRANCH  31  34
HETATM   34  C           0      -7.290  -5.881  -3.236  0.00  0.00     0.203 C 
BRANCH  34  35
HETATM   35  C           0      -8.630  -6.242  -2.534  0.00  0.00     0.307 C 
HETATM   36  O           0      -9.178  -7.317  -2.898  0.00  0.00    -0.186 OA
HETATM   37  O           0      -9.020  -5.417  -1.673  0.00  0.00    -0.186 OA
ENDBRANCH  34  35
ENDBRANCH  31  34
ENDBRANCH  29  30
BRANCH  29  38
HETATM   38  C           0      -8.866  -4.167  -6.708  0.00  0.00     0.199 C 
BRANCH  38  39
HETATM   39  O           0      -8.627  -2.905  -7.304  0.00  0.00    -0.398 OA
HETATM   40  H           0      -9.203  -2.792  -8.079  0.00  0.00     0.209 HD
ENDBRANCH  38  39
ENDBRANCH  29  38
ENDBRANCH  26  29
ENDBRANCH  20  25
ENDBRANCH   5  18
ENDBRANCH   3   5
BRANCH   1  41
HETATM   41  C           0      -5.585 -13.273 -12.790  0.00  0.00     0.185 C 
BRANCH  41  42
HETATM   42  C           0      -6.353 -14.189 -13.762  0.00  0.00     0.137 C 
BRANCH  42  43
HETATM   43  C           0      -7.061 -15.373 -13.104  0.00  0.00     0.217 C 
HETATM   44  N           0      -8.338 -15.121 -12.742  0.00  0.00    -0.370 N 
HETATM   45  H           0      -8.818 -15.834 -12.211  0.00  0.00     0.159 HD
HETATM   46  H           0      -8.768 -14.193 -12.836  0.00  0.00     0.159 HD
HETATM   47  O           0      -6.486 -16.445 -12.898  0.00  0.00    -0.274 OA
ENDBRANCH  42  43
ENDBRANCH  41  42
BRANCH  41  48
HETATM   48  N           0      -4.937 -14.133 -11.806  0.00  0.00    -0.346 N 
HETATM   49  H           0      -5.453 -14.379 -10.972  0.00  0.00     0.163 HD
HETATM   50  C           0      -3.655 -14.541 -11.898  0.00  0.00     0.241 C 
HETATM   51  O           0      -2.899 -14.203 -12.818  0.00  0.00    -0.271 OA
BRANCH  50  52
HETATM   52  C           0      -3.157 -15.498 -10.799  0.00  0.00     0.177 C 
BRANCH  52  53
HETATM   53  N           0      -3.717 -15.181  -9.489  0.00  0.00    -0.346 N 
HETATM   54  H           0      -4.695 -15.375  -9.317  0.00  0.00     0.163 HD
HETATM   55  C           0      -2.939 -14.751  -8.459  0.00  0.00     0.236 C 
HETATM   56  O           0      -1.723 -14.602  -8.555  0.00  0.00    -0.272 OA
BRANCH  55  57
HETATM   57  C           0      -3.653 -14.476  -7.129  0.00  0.00     0.225 C 
BRANCH  57  58
HETATM   58  N           0      -4.878 -15.249  -6.934  0.00  0.00    -0.351 N 
HETATM   59  H           0      -4.859 -16.222  -7.207  0.00  0.00     0.163 HD
HETATM   60  C           0      -5.864 -14.748  -6.154  0.00  0.00     0.248 C 
HETATM   61  O           0      -5.793 -13.612  -5.674  0.00  0.00    -0.271 OA
BRANCH  60  62
HETATM   62  C           0      -7.125 -15.572  -5.867  0.00  0.00     0.275 C 
BRANCH  62  63
HETATM   63  N           0      -8.326 -14.715  -5.503  0.00  0.00    -0.066 N 
HETATM   64  H           0      -8.373 -14.508  -4.499  0.00  0.00     0.275 HD
HETATM   65  H           0      -8.371 -13.827  -6.012  0.00  0.00     0.275 HD
HETATM   66  H           0      -9.188 -15.219  -5.737  0.00  0.00     0.275 HD
ENDBRANCH  62  63
BRANCH  62  67
HETATM   67  C           0      -7.529 -16.544  -6.987  0.00  0.00     0.053 C 
BRANCH  67  68
HETATM   68  C           0      -8.239 -15.883  -8.174  0.00  0.00     0.115 C 
BRANCH  68  69
HETATM   69  C           0      -7.347 -15.388  -9.330  0.00  0.00     0.172 C 
HETATM   70  O           0      -7.636 -14.302  -9.898  0.00  0.00    -0.648 OA
HETATM   71  O           0      -6.372 -16.144  -9.643  0.00  0.00    -0.648 OA
ENDBRANCH  68  69
ENDBRANCH  67  68
ENDBRANCH  62  67
ENDBRANCH  60  62
ENDBRANCH  57  58
ENDBRANCH  55  57
ENDBRANCH  52  53
BRANCH  52  72
HETATM   72  C           0      -3.474 -16.973 -11.138  0.00  0.00     0.038 C 
BRANCH  72  73
HETATM   73  C           0      -2.278 -17.887 -11.467  0.00  0.00    -0.020 C 
HETATM   74  C           0      -1.974 -17.942 -12.971  0.00  0.00     0.009 C 
HETATM   75  C           0      -1.048 -17.411 -10.677  0.00  0.00     0.009 C 
ENDBRANCH  72  73
ENDBRANCH  52  72
ENDBRANCH  50  52
ENDBRANCH  41  48
ENDBRANCH   1  41
TORSDOF 28
ENDMDL
MODEL 7
REMARK VINA RESULT:      -5.7      4.465     11.043
REMARK  28 active torsions:
REMARK  status: ('A' for Active; 'I' for Inactive)
REMARK       I    between atoms: C_1  and  N_3 
REMARK    1  A    between atoms: C_1  and  C_41 
REMARK    2  A    between atoms: N_3  and  C_5 
REMARK    3  A    between atoms: C_5  and  C_6 
REMARK    4  A    between atoms: C_5  and  C_18 
REMARK       I    between atoms: C_18  and  N_19 
REMARK    5  A    between atoms: C_20  and  C_25 
REMARK       I    between atoms: C_25  and  N_26 
REMARK    6  A    between atoms: N_26  and  C_29 
REMARK    7  A    between atoms: C_29  and  C_30 
REMARK    8  A    between atoms: C_29  and  C_38 
REMARK       I    between atoms: C_30  and  N_31 
REMARK    9  A    between atoms: N_31  and  C_34 
REMARK   10  A    between atoms: C_34  and  C_35 
REMARK   11  A    between atoms: C_38  and  O_39 
REMARK   12  A    between atoms: C_6  and  C_7 
REMARK   13  A    between atoms: C_7  and  C_8 
REMARK   14  A    between atoms: C_8  and  N_9 
REMARK       I    between atoms: N_9  and  C_10 
REMARK       I    between atoms: C_10  and  N_12 
REMARK   15  A    between atoms: C_41  and  C_42 
REMARK   16  A    between atoms: C_41  and  N_48 
REMARK       I    between atoms: N_48  and  C_50 
REMARK   17  A    between atoms: C_50  and  C_52 
REMARK   18  A    between atoms: C_52  and  N_53 
REMARK   19  A    between atoms: C_52  and  C_72 
REMARK       I    between atoms: N_53  and  C_55 
REMARK   20  A    between atoms: C_55  and  C_57 
REMARK   21  A    between atoms: C_57  and  N_58 
REMARK       I    between atoms: N_58  and  C_60 
REMARK   22  A    between atoms: C_60  and  C_62 
REMARK   23  A    between atoms: C_62  and  N_63 
REMARK   24  A    between atoms: C_62  and  C_67 
REMARK   25  A    between atoms: C_67  and  C_68 
REMARK   26  A    between atoms: C_68  and  C_69 
REMARK   27  A    between atoms: C_72  and  C_73 
REMARK   28  A    between atoms: C_42  and  C_43 
REMARK       I    between atoms: C_43  and  N_44 
ROOT
HETATM    1  C           0       9.690  -7.730 -15.088  0.00  0.00     0.241 C 
HETATM    2  O           0       9.752  -8.692 -14.314  0.00  0.00    -0.271 OA
HETATM    3  N           0      10.625  -7.525 -16.047  0.00  0.00    -0.346 N 
HETATM    4  H           0      10.559  -6.705 -16.638  0.00  0.00     0.163 HD
ENDROOT
BRANCH   3   5
HETATM    5  C           0      11.635  -8.546 -16.321  0.00  0.00     0.176 C 
BRANCH   5   6
HETATM    6  C           0      11.751  -8.838 -17.826  0.00  0.00     0.036 C 
BRANCH   6   7
HETATM    7  C           0      10.503  -9.562 -18.343  0.00  0.00     0.023 C 
BRANCH   7   8
HETATM    8  C           0      10.456 -11.052 -18.003  0.00  0.00     0.138 C 
BRANCH   8   9
HETATM    9  N           0       9.330 -11.259 -17.097  0.00  0.00    -0.227 N 
HETATM   10  C           0       9.390 -11.466 -15.785  0.00  0.00     0.665 C 
HETATM   11  N           0      10.560 -11.567 -15.140  0.00  0.00    -0.235 N 
HETATM   12  N           0       8.227 -11.560 -15.115  0.00  0.00    -0.235 N 
HETATM   13  H           0      10.592 -11.579 -14.132  0.00  0.00     0.174 HD
HETATM   14  H           0      11.431 -11.418 -15.625  0.00  0.00     0.174 HD
HETATM   15  H           0       8.206 -11.952 -14.185  0.00  0.00     0.174 HD
HETATM   16  H           0       7.384 -11.607 -15.692  0.00  0.00     0.174 HD
HETATM   17  H           0       8.369 -11.275 -17.480  0.00  0.00     0.177 HD
ENDBRANCH   8   9
ENDBRANCH   7   8
ENDBRANCH   6   7
ENDBRANCH   5   6
BRANCH   5  18
HETATM   18  C           0      13.003  -8.322 -15.640  0.00  0.00     0.243 C 
HETATM   19  N           0      13.520  -7.069 -15.526  0.00  0.00    -0.337 N 
HETATM   20  C           0      14.765  -6.869 -14.764  0.00  0.00     0.179 C 
HETATM   21  C           0      13.268  -5.914 -16.414  0.00  0.00     0.127 C 
HETATM   22  C           0      15.432  -5.624 -15.411  0.00  0.00     0.037 C 
HETATM   23  C           0      14.687  -5.438 -16.743  0.00  0.00     0.022 C 
HETATM   24  O           0      13.561  -9.309 -15.152  0.00  0.00    -0.271 OA
BRANCH  20  25
HETATM   25  C           0      14.573  -6.651 -13.253  0.00  0.00     0.241 C 
HETATM   26  N           0      14.365  -7.744 -12.475  0.00  0.00    -0.344 N 
HETATM   27  H           0      14.351  -8.669 -12.898  0.00  0.00     0.163 HD
HETATM   28  O           0      14.599  -5.501 -12.810  0.00  0.00    -0.271 OA
BRANCH  26  29
HETATM   29  C           0      13.989  -7.630 -11.074  0.00  0.00     0.200 C 
BRANCH  29  30
HETATM   30  C           0      14.538  -8.726 -10.140  0.00  0.00     0.242 C 
HETATM   31  N           0      13.736  -9.757  -9.840  0.00  0.00    -0.354 N 
HETATM   32  H           0      12.807  -9.870 -10.239  0.00  0.00     0.162 HD
HETATM   33  O           0      15.693  -8.611  -9.701  0.00  0.00    -0.271 OA
BRANCH  31  34
HETATM   34  C           0      14.147 -10.877  -9.014  0.00  0.00     0.203 C 
BRANCH  34  35
HETATM   35  C           0      13.255 -12.118  -9.300  0.00  0.00     0.307 C 
HETATM   36  O           0      12.009 -11.931  -9.261  0.00  0.00    -0.186 OA
HETATM   37  O           0      13.879 -13.179  -9.542  0.00  0.00    -0.186 OA
ENDBRANCH  34  35
ENDBRANCH  31  34
ENDBRANCH  29  30
BRANCH  29  38
HETATM   38  C           0      12.456  -7.544 -10.916  0.00  0.00     0.199 C 
BRANCH  38  39
HETATM   39  O           0      12.059  -7.190  -9.604  0.00  0.00    -0.398 OA
HETATM   40  H           0      12.771  -6.694  -9.167  0.00  0.00     0.209 HD
ENDBRANCH  38  39
ENDBRANCH  29  38
ENDBRANCH  26  29
ENDBRANCH  20  25
ENDBRANCH   5  18
ENDBRANCH   3   5
BRANCH   1  41
HETATM   41  C           0       8.513  -6.733 -15.033  0.00  0.00     0.185 C 
BRANCH  41  42
HETATM   42  C           0       7.774  -6.768 -13.682  0.00  0.00     0.137 C 
BRANCH  42  43
HETATM   43  C           0       6.553  -7.686 -13.642  0.00  0.00     0.217 C 
HETATM   44  N           0       6.811  -8.928 -13.177  0.00  0.00    -0.370 N 
HETATM   45  H           0       6.064  -9.606 -13.227  0.00  0.00     0.159 HD
HETATM   46  H           0       7.759  -9.246 -12.940  0.00  0.00     0.159 HD
HETATM   47  O           0       5.445  -7.317 -14.040  0.00  0.00    -0.274 OA
ENDBRANCH  42  43
ENDBRANCH  41  42
BRANCH  41  48
HETATM   48  N           0       7.526  -6.990 -16.074  0.00  0.00    -0.346 N 
HETATM   49  H           0       6.687  -7.496 -15.823  0.00  0.00     0.163 HD
HETATM   50  C           0       7.708  -6.676 -17.373  0.00  0.00     0.241 C 
HETATM   51  O           0       8.746  -6.161 -17.808  0.00  0.00    -0.271 OA
BRANCH  50  52
HETATM   52  C           0       6.530  -6.965 -18.323  0.00  0.00     0.177 C 
BRANCH  52  53
HETATM   53  N           0       6.020  -5.755 -18.961  0.00  0.00    -0.346 N 
HETATM   54  H           0       6.102  -5.661 -19.965  0.00  0.00     0.163 HD
HETATM   55  C           0       5.331  -4.811 -18.265  0.00  0.00     0.236 C 
HETATM   56  O           0       5.089  -4.908 -17.064  0.00  0.00    -0.272 OA
BRANCH  55  57
HETATM   57  C           0       4.830  -3.600 -19.064  0.00  0.00     0.225 C 
BRANCH  57  58
HETATM   58  N           0       5.000  -2.319 -18.381  0.00  0.00    -0.351 N 
HETATM   59  H           0       5.864  -1.821 -18.542  0.00  0.00     0.163 HD
HETATM   60  C           0       3.926  -1.718 -17.817  0.00  0.00     0.248 C 
HETATM   61  O           0       2.820  -2.269 -17.786  0.00  0.00    -0.271 OA
BRANCH  60  62
HETATM   62  C           0       4.059  -0.336 -17.165  0.00  0.00     0.275 C 
BRANCH  62  63
HETATM   63  N           0       3.716   0.803 -18.111  0.00  0.00    -0.066 N 
HETATM   64  H           0       2.816   0.666 -18.583  0.00  0.00     0.275 HD
HETATM   65  H           0       3.702   1.724 -17.661  0.00  0.00     0.275 HD
HETATM   66  H           0       4.427   0.860 -18.848  0.00  0.00     0.275 HD
ENDBRANCH  62  63
BRANCH  62  67
HETATM   67  C           0       3.263  -0.159 -15.862  0.00  0.00     0.053 C 
BRANCH  67  68
HETATM   68  C           0       2.028   0.742 -15.992  0.00  0.00     0.115 C 
BRANCH  68  69
HETATM   69  C           0       0.673   0.124 -15.593  0.00  0.00     0.172 C 
HETATM   70  O           0      -0.269   0.890 -15.258  0.00  0.00    -0.648 OA
HETATM   71  O           0       0.614  -1.147 -15.613  0.00  0.00    -0.648 OA
ENDBRANCH  68  69
ENDBRANCH  67  68
ENDBRANCH  62  67
ENDBRANCH  60  62
ENDBRANCH  57  58
ENDBRANCH  55  57
ENDBRANCH  52  53
BRANCH  52  72
HETATM   72  C           0       6.914  -7.987 -19.416  0.00  0.00     0.038 C 
BRANCH  72  73
HETATM   73  C           0       7.148  -7.437 -20.836  0.00  0.00    -0.020 C 
HETATM   74  C           0       8.638  -7.261 -21.162  0.00  0.00     0.009 C 
HETATM   75  C           0       6.471  -8.367 -21.856  0.00  0.00     0.009 C 
ENDBRANCH  72  73
ENDBRANCH  52  72
ENDBRANCH  50  52
ENDBRANCH  41  48
ENDBRANCH   1  41
TORSDOF 28
ENDMDL
MODEL 8
REMARK VINA RESULT:      -5.7     14.628     18.659
REMARK  28 active torsions:
REMARK  status: ('A' for Active; 'I' for Inactive)
REMARK       I    between atoms: C_1  and  N_3 
REMARK    1  A    between atoms: C_1  and  C_41 
REMARK    2  A    between atoms: N_3  and  C_5 
REMARK    3  A    between atoms: C_5  and  C_6 
REMARK    4  A    between atoms: C_5  and  C_18 
REMARK       I    between atoms: C_18  and  N_19 
REMARK    5  A    between atoms: C_20  and  C_25 
REMARK       I    between atoms: C_25  and  N_26 
REMARK    6  A    between atoms: N_26  and  C_29 
REMARK    7  A    between atoms: C_29  and  C_30 
REMARK    8  A    between atoms: C_29  and  C_38 
REMARK       I    between atoms: C_30  and  N_31 
REMARK    9  A    between atoms: N_31  and  C_34 
REMARK   10  A    between atoms: C_34  and  C_35 
REMARK   11  A    between atoms: C_38  and  O_39 
REMARK   12  A    between atoms: C_6  and  C_7 
REMARK   13  A    between atoms: C_7  and  C_8 
REMARK   14  A    between atoms: C_8  and  N_9 
REMARK       I    between atoms: N_9  and  C_10 
REMARK       I    between atoms: C_10  and  N_12 
REMARK   15  A    between atoms: C_41  and  C_42 
REMARK   16  A    between atoms: C_41  and  N_48 
REMARK       I    between atoms: N_48  and  C_50 
REMARK   17  A    between atoms: C_50  and  C_52 
REMARK   18  A    between atoms: C_52  and  N_53 
REMARK   19  A    between atoms: C_52  and  C_72 
REMARK       I    between atoms: N_53  and  C_55 
REMARK   20  A    between atoms: C_55  and  C_57 
REMARK   21  A    between atoms: C_57  and  N_58 
REMARK       I    between atoms: N_58  and  C_60 
REMARK   22  A    between atoms: C_60  and  C_62 
REMARK   23  A    between atoms: C_62  and  N_63 
REMARK   24  A    between atoms: C_62  and  C_67 
REMARK   25  A    between atoms: C_67  and  C_68 
REMARK   26  A    between atoms: C_68  and  C_69 
REMARK   27  A    between atoms: C_72  and  C_73 
REMARK   28  A    between atoms: C_42  and  C_43 
REMARK       I    between atoms: C_43  and  N_44 
ROOT
HETATM    1  C           0      -4.635 -16.547  -9.852  0.00  0.00     0.241 C 
HETATM    2  O           0      -5.554 -16.926  -9.117  0.00  0.00    -0.271 OA
HETATM    3  N           0      -4.180 -17.309 -10.875  0.00  0.00    -0.346 N 
HETATM    4  H           0      -3.401 -16.979 -11.432  0.00  0.00     0.163 HD
ENDROOT
BRANCH   3   5
HETATM    5  C           0      -4.892 -18.525 -11.261  0.00  0.00     0.176 C 
BRANCH   5   6
HETATM    6  C           0      -5.243 -18.526 -12.758  0.00  0.00     0.036 C 
BRANCH   6   7
HETATM    7  C           0      -4.374 -19.529 -13.526  0.00  0.00     0.023 C 
BRANCH   7   8
HETATM    8  C           0      -3.240 -18.890 -14.328  0.00  0.00     0.138 C 
BRANCH   8   9
HETATM    9  N           0      -2.250 -18.400 -13.373  0.00  0.00    -0.227 N 
HETATM   10  C           0      -1.169 -19.045 -12.944  0.00  0.00     0.665 C 
HETATM   11  N           0      -0.901 -20.302 -13.324  0.00  0.00    -0.235 N 
HETATM   12  N           0      -0.338 -18.386 -12.115  0.00  0.00    -0.235 N 
HETATM   13  H           0      -0.011 -20.725 -13.107  0.00  0.00     0.174 HD
HETATM   14  H           0      -1.478 -20.769 -14.004  0.00  0.00     0.174 HD
HETATM   15  H           0       0.348 -18.892 -11.576  0.00  0.00     0.174 HD
HETATM   16  H           0      -0.678 -17.487 -11.768  0.00  0.00     0.174 HD
HETATM   17  H           0      -2.377 -17.466 -12.947  0.00  0.00     0.177 HD
ENDBRANCH   8   9
ENDBRANCH   7   8
ENDBRANCH   6   7
ENDBRANCH   5   6
BRANCH   5  18
HETATM   18  C           0      -4.248 -19.848 -10.790  0.00  0.00     0.243 C 
HETATM   19  N           0      -5.026 -20.900 -10.419  0.00  0.00    -0.337 N 
HETATM   20  C           0      -4.390 -22.188 -10.094  0.00  0.00     0.179 C 
HETATM   21  C           0      -6.396 -20.847  -9.865  0.00  0.00     0.127 C 
HETATM   22  C           0      -5.349 -22.858  -9.071  0.00  0.00     0.037 C 
HETATM   23  C           0      -6.277 -21.722  -8.612  0.00  0.00     0.022 C 
HETATM   24  O           0      -3.017 -19.924 -10.833  0.00  0.00    -0.271 OA
BRANCH  20  25
HETATM   25  C           0      -4.152 -23.117 -11.297  0.00  0.00     0.241 C 
HETATM   26  N           0      -2.963 -23.026 -11.944  0.00  0.00    -0.344 N 
HETATM   27  H           0      -2.261 -22.365 -11.620  0.00  0.00     0.163 HD
HETATM   28  O           0      -5.049 -23.892 -11.636  0.00  0.00    -0.271 OA
BRANCH  26  29
HETATM   29  C           0      -2.714 -23.723 -13.198  0.00  0.00     0.200 C 
BRANCH  29  30
HETATM   30  C           0      -1.274 -24.229 -13.410  0.00  0.00     0.242 C 
HETATM   31  N           0      -0.270 -23.500 -12.904  0.00  0.00    -0.354 N 
HETATM   32  H           0      -0.420 -22.662 -12.347  0.00  0.00     0.162 HD
HETATM   33  O           0      -1.101 -25.283 -14.042  0.00  0.00    -0.271 OA
BRANCH  31  34
HETATM   34  C           0       1.125 -23.890 -12.991  0.00  0.00     0.203 C 
BRANCH  34  35
HETATM   35  C           0       1.869 -23.010 -14.036  0.00  0.00     0.307 C 
HETATM   36  O           0       1.172 -22.152 -14.640  0.00  0.00    -0.186 OA
HETATM   37  O           0       3.094 -23.254 -14.163  0.00  0.00    -0.186 OA
ENDBRANCH  34  35
ENDBRANCH  31  34
ENDBRANCH  29  30
BRANCH  29  38
HETATM   38  C           0      -3.137 -22.859 -14.405  0.00  0.00     0.199 C 
BRANCH  38  39
HETATM   39  O           0      -2.034 -22.409 -15.170  0.00  0.00    -0.398 OA
HETATM   40  H           0      -1.719 -21.557 -14.823  0.00  0.00     0.209 HD
ENDBRANCH  38  39
ENDBRANCH  29  38
ENDBRANCH  26  29
ENDBRANCH  20  25
ENDBRANCH   5  18
ENDBRANCH   3   5
BRANCH   1  41
HETATM   41  C           0      -3.987 -15.158  -9.670  0.00  0.00     0.185 C 
BRANCH  41  42
HETATM   42  C           0      -2.451 -15.205  -9.780  0.00  0.00     0.137 C 
BRANCH  42  43
HETATM   43  C           0      -1.738 -15.796  -8.565  0.00  0.00     0.217 C 
HETATM   44  N           0      -1.254 -17.041  -8.761  0.00  0.00    -0.370 N 
HETATM   45  H           0      -0.866 -17.519  -7.959  0.00  0.00     0.159 HD
HETATM   46  H           0      -1.416 -17.569  -9.627  0.00  0.00     0.159 HD
HETATM   47  O           0      -1.655 -15.186  -7.496  0.00  0.00    -0.274 OA
ENDBRANCH  42  43
ENDBRANCH  41  42
BRANCH  41  48
HETATM   48  N           0      -4.311 -14.565  -8.378  0.00  0.00    -0.346 N 
HETATM   49  H           0      -3.987 -15.034  -7.542  0.00  0.00     0.163 HD
HETATM   50  C           0      -5.099 -13.480  -8.229  0.00  0.00     0.241 C 
HETATM   51  O           0      -5.642 -12.900  -9.177  0.00  0.00    -0.271 OA
BRANCH  50  52
HETATM   52  C           0      -5.281 -12.955  -6.792  0.00  0.00     0.177 C 
BRANCH  52  53
HETATM   53  N           0      -6.315 -11.930  -6.701  0.00  0.00    -0.346 N 
HETATM   54  H           0      -7.209 -12.097  -7.147  0.00  0.00     0.163 HD
HETATM   55  C           0      -6.160 -10.817  -5.935  0.00  0.00     0.236 C 
HETATM   56  O           0      -5.150 -10.597  -5.270  0.00  0.00    -0.272 OA
BRANCH  55  57
HETATM   57  C           0      -7.336  -9.832  -5.910  0.00  0.00     0.225 C 
BRANCH  57  58
HETATM   58  N           0      -7.397  -8.941  -7.066  0.00  0.00    -0.351 N 
HETATM   59  H           0      -8.039  -9.188  -7.806  0.00  0.00     0.163 HD
HETATM   60  C           0      -6.842  -7.708  -6.987  0.00  0.00     0.248 C 
HETATM   61  O           0      -6.205  -7.350  -5.991  0.00  0.00    -0.271 OA
BRANCH  60  62
HETATM   62  C           0      -6.963  -6.723  -8.156  0.00  0.00     0.275 C 
BRANCH  62  63
HETATM   63  N           0      -6.789  -5.274  -7.734  0.00  0.00    -0.066 N 
HETATM   64  H           0      -6.486  -4.672  -8.508  0.00  0.00     0.275 HD
HETATM   65  H           0      -7.630  -4.860  -7.320  0.00  0.00     0.275 HD
HETATM   66  H           0      -6.061  -5.214  -7.014  0.00  0.00     0.275 HD
ENDBRANCH  62  63
BRANCH  62  67
HETATM   67  C           0      -6.027  -7.012  -9.341  0.00  0.00     0.053 C 
BRANCH  67  68
HETATM   68  C           0      -6.708  -7.694 -10.534  0.00  0.00     0.115 C 
BRANCH  68  69
HETATM   69  C           0      -6.500  -9.215 -10.677  0.00  0.00     0.172 C 
HETATM   70  O           0      -6.943  -9.976  -9.777  0.00  0.00    -0.648 OA
HETATM   71  O           0      -5.861  -9.594 -11.711  0.00  0.00    -0.648 OA
ENDBRANCH  68  69
ENDBRANCH  67  68
ENDBRANCH  62  67
ENDBRANCH  60  62
ENDBRANCH  57  58
ENDBRANCH  55  57
ENDBRANCH  52  53
BRANCH  52  72
HETATM   72  C           0      -5.614 -14.097  -5.804  0.00  0.00     0.038 C 
BRANCH  72  73
HETATM   73  C           0      -7.094 -14.509  -5.687  0.00  0.00    -0.020 C 
HETATM   74  C           0      -7.355 -15.924  -6.223  0.00  0.00     0.009 C 
HETATM   75  C           0      -7.537 -14.388  -4.220  0.00  0.00     0.009 C 
ENDBRANCH  72  73
ENDBRANCH  52  72
ENDBRANCH  50  52
ENDBRANCH  41  48
ENDBRANCH   1  41
TORSDOF 28
ENDMDL
MODEL 9
REMARK VINA RESULT:      -5.7     15.617     20.572
REMARK  28 active torsions:
REMARK  status: ('A' for Active; 'I' for Inactive)
REMARK       I    between atoms: C_1  and  N_3 
REMARK    1  A    between atoms: C_1  and  C_41 
REMARK    2  A    between atoms: N_3  and  C_5 
REMARK    3  A    between atoms: C_5  and  C_6 
REMARK    4  A    between atoms: C_5  and  C_18 
REMARK       I    between atoms: C_18  and  N_19 
REMARK    5  A    between atoms: C_20  and  C_25 
REMARK       I    between atoms: C_25  and  N_26 
REMARK    6  A    between atoms: N_26  and  C_29 
REMARK    7  A    between atoms: C_29  and  C_30 
REMARK    8  A    between atoms: C_29  and  C_38 
REMARK       I    between atoms: C_30  and  N_31 
REMARK    9  A    between atoms: N_31  and  C_34 
REMARK   10  A    between atoms: C_34  and  C_35 
REMARK   11  A    between atoms: C_38  and  O_39 
REMARK   12  A    between atoms: C_6  and  C_7 
REMARK   13  A    between atoms: C_7  and  C_8 
REMARK   14  A    between atoms: C_8  and  N_9 
REMARK       I    between atoms: N_9  and  C_10 
REMARK       I    between atoms: C_10  and  N_12 
REMARK   15  A    between atoms: C_41  and  C_42 
REMARK   16  A    between atoms: C_41  and  N_48 
REMARK       I    between atoms: N_48  and  C_50 
REMARK   17  A    between atoms: C_50  and  C_52 
REMARK   18  A    between atoms: C_52  and  N_53 
REMARK   19  A    between atoms: C_52  and  C_72 
REMARK       I    between atoms: N_53  and  C_55 
REMARK   20  A    between atoms: C_55  and  C_57 
REMARK   21  A    between atoms: C_57  and  N_58 
REMARK       I    between atoms: N_58  and  C_60 
REMARK   22  A    between atoms: C_60  and  C_62 
REMARK   23  A    between atoms: C_62  and  N_63 
REMARK   24  A    between atoms: C_62  and  C_67 
REMARK   25  A    between atoms: C_67  and  C_68 
REMARK   26  A    between atoms: C_68  and  C_69 
REMARK   27  A    between atoms: C_72  and  C_73 
REMARK   28  A    between atoms: C_42  and  C_43 
REMARK       I    between atoms: C_43  and  N_44 
ROOT
HETATM    1  C           0      -7.581 -10.466  -9.714  0.00  0.00     0.241 C 
HETATM    2  O           0      -8.713 -10.054  -9.989  0.00  0.00    -0.271 OA
HETATM    3  N           0      -6.466  -9.810 -10.116  0.00  0.00    -0.346 N 
HETATM    4  H           0      -5.556 -10.198  -9.901  0.00  0.00     0.163 HD
ENDROOT
BRANCH   3   5
HETATM    5  C           0      -6.571  -8.486 -10.727  0.00  0.00     0.176 C 
BRANCH   5   6
HETATM    6  C           0      -5.972  -7.395  -9.825  0.00  0.00     0.036 C 
BRANCH   6   7
HETATM    7  C           0      -7.018  -6.864  -8.837  0.00  0.00     0.023 C 
BRANCH   7   8
HETATM    8  C           0      -6.561  -5.645  -8.037  0.00  0.00     0.138 C 
BRANCH   8   9
HETATM    9  N           0      -7.664  -5.258  -7.161  0.00  0.00    -0.227 N 
HETATM   10  C           0      -7.627  -4.357  -6.184  0.00  0.00     0.665 C 
HETATM   11  N           0      -6.494  -3.722  -5.852  0.00  0.00    -0.235 N 
HETATM   12  N           0      -8.777  -4.090  -5.538  0.00  0.00    -0.235 N 
HETATM   13  H           0      -6.510  -2.943  -5.211  0.00  0.00     0.174 HD
HETATM   14  H           0      -5.650  -3.862  -6.384  0.00  0.00     0.174 HD
HETATM   15  H           0      -8.762  -3.612  -4.651  0.00  0.00     0.174 HD
HETATM   16  H           0      -9.563  -4.707  -5.757  0.00  0.00     0.174 HD
HETATM   17  H           0      -8.581  -5.725  -7.266  0.00  0.00     0.177 HD
ENDBRANCH   8   9
ENDBRANCH   7   8
ENDBRANCH   6   7
ENDBRANCH   5   6
BRANCH   5  18
HETATM   18  C           0      -6.086  -8.394 -12.191  0.00  0.00     0.243 C 
HETATM   19  N           0      -6.974  -8.184 -13.200  0.00  0.00    -0.337 N 
HETATM   20  C           0      -6.474  -7.976 -14.570  0.00  0.00     0.179 C 
HETATM   21  C           0      -8.403  -8.562 -13.225  0.00  0.00     0.127 C 
HETATM   22  C           0      -7.612  -8.496 -15.492  0.00  0.00     0.037 C 
HETATM   23  C           0      -8.522  -9.309 -14.557  0.00  0.00     0.022 C 
HETATM   24  O           0      -4.869  -8.449 -12.389  0.00  0.00    -0.271 OA
BRANCH  20  25
HETATM   25  C           0      -6.124  -6.519 -14.918  0.00  0.00     0.241 C 
HETATM   26  N           0      -6.423  -5.559 -14.006  0.00  0.00    -0.344 N 
HETATM   27  H           0      -6.855  -5.818 -13.123  0.00  0.00     0.163 HD
HETATM   28  O           0      -5.603  -6.276 -16.009  0.00  0.00    -0.271 OA
BRANCH  26  29
HETATM   29  C           0      -6.304  -4.141 -14.316  0.00  0.00     0.200 C 
BRANCH  29  30
HETATM   30  C           0      -4.884  -3.550 -14.217  0.00  0.00     0.242 C 
HETATM   31  N           0      -4.190  -3.764 -13.090  0.00  0.00    -0.354 N 
HETATM   32  H           0      -4.539  -4.337 -12.326  0.00  0.00     0.162 HD
HETATM   33  O           0      -4.442  -2.900 -15.177  0.00  0.00    -0.271 OA
BRANCH  31  34
HETATM   34  C           0      -2.828  -3.305 -12.890  0.00  0.00     0.203 C 
BRANCH  34  35
HETATM   35  C           0      -2.283  -3.806 -11.521  0.00  0.00     0.307 C 
HETATM   36  O           0      -1.914  -2.916 -10.708  0.00  0.00    -0.186 OA
HETATM   37  O           0      -2.273  -5.052 -11.376  0.00  0.00    -0.186 OA
ENDBRANCH  34  35
ENDBRANCH  31  34
ENDBRANCH  29  30
BRANCH  29  38
HETATM   38  C           0      -7.269  -3.302 -13.451  0.00  0.00     0.199 C 
BRANCH  38  39
HETATM   39  O           0      -7.064  -3.488 -12.063  0.00  0.00    -0.398 OA
HETATM   40  H           0      -7.053  -2.626 -11.613  0.00  0.00     0.209 HD
ENDBRANCH  38  39
ENDBRANCH  29  38
ENDBRANCH  26  29
ENDBRANCH  20  25
ENDBRANCH   5  18
ENDBRANCH   3   5
BRANCH   1  41
HETATM   41  C           0      -7.378 -11.729  -8.851  0.00  0.00     0.185 C 
BRANCH  41  42
HETATM   42  C           0      -8.350 -12.863  -9.228  0.00  0.00     0.137 C 
BRANCH  42  43
HETATM   43  C           0      -9.575 -12.986  -8.323  0.00  0.00     0.217 C 
HETATM   44  N           0     -10.637 -12.256  -8.730  0.00  0.00    -0.370 N 
HETATM   45  H           0     -11.436 -12.218  -8.114  0.00  0.00     0.159 HD
HETATM   46  H           0     -10.597 -11.620  -9.536  0.00  0.00     0.159 HD
HETATM   47  O           0      -9.563 -13.668  -7.296  0.00  0.00    -0.274 OA
ENDBRANCH  42  43
ENDBRANCH  41  42
BRANCH  41  48
HETATM   48  N           0      -7.557 -11.459  -7.430  0.00  0.00    -0.346 N 
HETATM   49  H           0      -8.486 -11.230  -7.100  0.00  0.00     0.163 HD
HETATM   50  C           0      -6.541 -11.404  -6.544  0.00  0.00     0.241 C 
HETATM   51  O           0      -5.355 -11.552  -6.862  0.00  0.00    -0.271 OA
BRANCH  50  52
HETATM   52  C           0      -6.926 -11.169  -5.071  0.00  0.00     0.177 C 
BRANCH  52  53
HETATM   53  N           0      -7.376  -9.803  -4.824  0.00  0.00    -0.346 N 
HETATM   54  H           0      -8.359  -9.637  -4.648  0.00  0.00     0.163 HD
HETATM   55  C           0      -6.500  -8.769  -4.698  0.00  0.00     0.236 C 
HETATM   56  O           0      -5.283  -8.909  -4.781  0.00  0.00    -0.272 OA
BRANCH  55  57
HETATM   57  C           0      -7.107  -7.388  -4.414  0.00  0.00     0.225 C 
BRANCH  57  58
HETATM   58  N           0      -8.259  -7.411  -3.515  0.00  0.00    -0.351 N 
HETATM   59  H           0      -8.731  -8.296  -3.392  0.00  0.00     0.163 HD
HETATM   60  C           0      -8.470  -6.369  -2.678  0.00  0.00     0.248 C 
HETATM   61  O           0      -7.764  -5.356  -2.718  0.00  0.00    -0.271 OA
BRANCH  60  62
HETATM   62  C           0      -9.623  -6.403  -1.667  0.00  0.00     0.275 C 
BRANCH  62  63
HETATM   63  N           0      -9.983  -5.029  -1.128  0.00  0.00    -0.066 N 
HETATM   64  H           0      -9.458  -4.789  -0.280  0.00  0.00     0.275 HD
HETATM   65  H           0      -9.854  -4.271  -1.806  0.00  0.00     0.275 HD
HETATM   66  H           0     -10.976  -5.013  -0.871  0.00  0.00     0.275 HD
ENDBRANCH  62  63
BRANCH  62  67
HETATM   67  C           0     -10.902  -7.090  -2.172  0.00  0.00     0.053 C 
BRANCH  67  68
HETATM   68  C           0     -11.883  -6.155  -2.890  0.00  0.00     0.115 C 
BRANCH  68  69
HETATM   69  C           0     -11.477  -5.669  -4.296  0.00  0.00     0.172 C 
HETATM   70  O           0     -10.915  -6.478  -5.080  0.00  0.00    -0.648 OA
HETATM   71  O           0     -11.729  -4.448  -4.557  0.00  0.00    -0.648 OA
ENDBRANCH  68  69
ENDBRANCH  67  68
ENDBRANCH  62  67
ENDBRANCH  60  62
ENDBRANCH  57  58
ENDBRANCH  55  57
ENDBRANCH  52  53
BRANCH  52  72
HETATM   72  C           0      -8.022 -12.154  -4.603  0.00  0.00     0.038 C 
BRANCH  72  73
HETATM   73  C           0      -7.550 -13.500  -4.022  0.00  0.00    -0.020 C 
HETATM   74  C           0      -8.711 -14.351  -3.486  0.00  0.00     0.009 C 
HETATM   75  C           0      -6.763 -14.265  -5.098  0.00  0.00     0.009 C 
ENDBRANCH  72  73
ENDBRANCH  52  72
ENDBRANCH  50  52
ENDBRANCH  41  48
ENDBRANCH   1  41
TORSDOF 28
ENDMDL
