MODEL 1
REMARK VINA RESULT:      -5.6      0.000      0.000
REMARK  28 active torsions:
REMARK  status: ('A' for Active; 'I' for Inactive)
REMARK       I    between atoms: C_1  and  N_3 
REMARK    1  A    between atoms: C_1  and  C_41 
REMARK    2  A    between atoms: N_3  and  C_5 
REMARK    3  A    between atoms: C_5  and  C_6 
REMARK    4  A    between atoms: C_5  and  C_18 
REMARK       I    between atoms: C_18  and  N_19 
REMARK    5  A    between atoms: C_20  and  C_25 
REMARK       I    between atoms: C_25  and  N_26 
REMARK    6  A    between atoms: N_26  and  C_29 
REMARK    7  A    between atoms: C_29  and  C_30 
REMARK    8  A    between atoms: C_29  and  C_38 
REMARK       I    between atoms: C_30  and  N_31 
REMARK    9  A    between atoms: N_31  and  C_34 
REMARK   10  A    between atoms: C_34  and  C_35 
REMARK   11  A    between atoms: C_38  and  O_39 
REMARK   12  A    between atoms: C_6  and  C_7 
REMARK   13  A    between atoms: C_7  and  C_8 
REMARK   14  A    between atoms: C_8  and  N_9 
REMARK       I    between atoms: N_9  and  C_10 
REMARK       I    between atoms: C_10  and  N_12 
REMARK   15  A    between atoms: C_41  and  C_42 
REMARK   16  A    between atoms: C_41  and  N_48 
REMARK       I    between atoms: N_48  and  C_50 
REMARK   17  A    between atoms: C_50  and  C_52 
REMARK   18  A    between atoms: C_52  and  N_53 
REMARK   19  A    between atoms: C_52  and  C_72 
REMARK       I    between atoms: N_53  and  C_55 
REMARK   20  A    between atoms: C_55  and  C_57 
REMARK   21  A    between atoms: C_57  and  N_58 
REMARK       I    between atoms: N_58  and  C_60 
REMARK   22  A    between atoms: C_60  and  C_62 
REMARK   23  A    between atoms: C_62  and  N_63 
REMARK   24  A    between atoms: C_62  and  C_67 
REMARK   25  A    between atoms: C_67  and  C_68 
REMARK   26  A    between atoms: C_68  and  C_69 
REMARK   27  A    between atoms: C_72  and  C_73 
REMARK   28  A    between atoms: C_42  and  C_43 
REMARK       I    between atoms: C_43  and  N_44 
ROOT
HETATM    1  C           0       8.499 -26.555  -4.180  0.00  0.00     0.241 C 
HETATM    2  O           0       9.381 -27.145  -3.546  0.00  0.00    -0.271 OA
HETATM    3  N           0       7.187 -26.850  -4.019  0.00  0.00    -0.346 N 
HETATM    4  H           0       6.496 -26.370  -4.583  0.00  0.00     0.163 HD
ENDROOT
BRANCH   3   5
HETATM    5  C           0       6.760 -27.745  -2.945  0.00  0.00     0.176 C 
BRANCH   5   6
HETATM    6  C           0       5.610 -27.139  -2.124  0.00  0.00     0.036 C 
BRANCH   6   7
HETATM    7  C           0       4.395 -26.848  -3.013  0.00  0.00     0.023 C 
BRANCH   7   8
HETATM    8  C           0       4.153 -25.361  -3.275  0.00  0.00     0.138 C 
BRANCH   8   9
HETATM    9  N           0       3.810 -25.216  -4.688  0.00  0.00    -0.227 N 
HETATM   10  C           0       4.492 -24.541  -5.608  0.00  0.00     0.665 C 
HETATM   11  N           0       5.592 -23.840  -5.297  0.00  0.00    -0.235 N 
HETATM   12  N           0       4.047 -24.592  -6.877  0.00  0.00    -0.235 N 
HETATM   13  H           0       6.177 -23.453  -6.023  0.00  0.00     0.174 HD
HETATM   14  H           0       5.972 -23.864  -4.365  0.00  0.00     0.174 HD
HETATM   15  H           0       4.370 -23.919  -7.556  0.00  0.00     0.174 HD
HETATM   16  H           0       3.134 -25.033  -7.009  0.00  0.00     0.174 HD
HETATM   17  H           0       2.943 -25.652  -5.045  0.00  0.00     0.177 HD
ENDBRANCH   8   9
ENDBRANCH   7   8
ENDBRANCH   6   7
ENDBRANCH   5   6
BRANCH   5  18
HETATM   18  C           0       6.496 -29.207  -3.368  0.00  0.00     0.243 C 
HETATM   19  N           0       6.464 -30.200  -2.438  0.00  0.00    -0.337 N 
HETATM   20  C           0       6.088 -31.563  -2.850  0.00  0.00     0.179 C 
HETATM   21  C           0       7.171 -30.230  -1.139  0.00  0.00     0.127 C 
HETATM   22  C           0       6.828 -32.498  -1.853  0.00  0.00     0.037 C 
HETATM   23  C           0       7.871 -31.592  -1.179  0.00  0.00     0.022 C 
HETATM   24  O           0       6.251 -29.416  -4.560  0.00  0.00    -0.271 OA
BRANCH  20  25
HETATM   25  C           0       4.577 -31.851  -2.837  0.00  0.00     0.241 C 
HETATM   26  N           0       3.761 -30.991  -3.498  0.00  0.00    -0.344 N 
HETATM   27  H           0       4.159 -30.194  -3.989  0.00  0.00     0.163 HD
HETATM   28  O           0       4.164 -32.835  -2.218  0.00  0.00    -0.271 OA
BRANCH  26  29
HETATM   29  C           0       2.312 -31.071  -3.390  0.00  0.00     0.200 C 
BRANCH  29  30
HETATM   30  C           0       1.517 -30.479  -4.571  0.00  0.00     0.242 C 
HETATM   31  N           0       1.851 -29.255  -5.004  0.00  0.00    -0.354 N 
HETATM   32  H           0       2.633 -28.727  -4.622  0.00  0.00     0.162 HD
HETATM   33  O           0       0.602 -31.152  -5.069  0.00  0.00    -0.271 OA
BRANCH  31  34
HETATM   34  C           0       1.217 -28.605  -6.135  0.00  0.00     0.203 C 
BRANCH  34  35
HETATM   35  C           0       2.163 -27.532  -6.745  0.00  0.00     0.307 C 
HETATM   36  O           0       1.607 -26.584  -7.362  0.00  0.00    -0.186 OA
HETATM   37  O           0       3.387 -27.730  -6.553  0.00  0.00    -0.186 OA
ENDBRANCH  34  35
ENDBRANCH  31  34
ENDBRANCH  29  30
BRANCH  29  38
HETATM   38  C           0       1.818 -30.436  -2.072  0.00  0.00     0.199 C 
BRANCH  38  39
HETATM   39  O           0       1.858 -29.022  -2.096  0.00  0.00    -0.398 OA
HETATM   40  H           0       1.031 -28.663  -1.734  0.00  0.00     0.209 HD
ENDBRANCH  38  39
ENDBRANCH  29  38
ENDBRANCH  26  29
ENDBRANCH  20  25
ENDBRANCH   5  18
ENDBRANCH   3   5
BRANCH   1  41
HETATM   41  C           0       8.845 -25.414  -5.159  0.00  0.00     0.185 C 
BRANCH  41  42
HETATM   42  C           0       9.107 -25.922  -6.590  0.00  0.00     0.137 C 
BRANCH  42  43
HETATM   43  C           0       9.069 -24.843  -7.672  0.00  0.00     0.217 C 
HETATM   44  N           0       7.932 -24.832  -8.400  0.00  0.00    -0.370 N 
HETATM   45  H           0       7.897 -24.209  -9.195  0.00  0.00     0.159 HD
HETATM   46  H           0       7.191 -25.534  -8.283  0.00  0.00     0.159 HD
HETATM   47  O           0      10.021 -24.083  -7.870  0.00  0.00    -0.274 OA
ENDBRANCH  42  43
ENDBRANCH  41  42
BRANCH  41  48
HETATM   48  N           0      10.027 -24.670  -4.740  0.00  0.00    -0.346 N 
HETATM   49  H           0      10.900 -25.173  -4.645  0.00  0.00     0.163 HD
HETATM   50  C           0      10.005 -23.370  -4.380  0.00  0.00     0.241 C 
HETATM   51  O           0       8.971 -22.692  -4.348  0.00  0.00    -0.271 OA
BRANCH  50  52
HETATM   52  C           0      11.361 -22.731  -4.027  0.00  0.00     0.177 C 
BRANCH  52  53
HETATM   53  N           0      11.308 -21.273  -4.034  0.00  0.00    -0.346 N 
HETATM   54  H           0      10.649 -20.806  -3.423  0.00  0.00     0.163 HD
HETATM   55  C           0      12.198 -20.524  -4.738  0.00  0.00     0.236 C 
HETATM   56  O           0      13.102 -21.014  -5.411  0.00  0.00    -0.272 OA
BRANCH  55  57
HETATM   57  C           0      12.044 -19.000  -4.637  0.00  0.00     0.225 C 
BRANCH  57  58
HETATM   58  N           0      11.749 -18.514  -3.291  0.00  0.00    -0.351 N 
HETATM   59  H           0      10.786 -18.550  -2.988  0.00  0.00     0.163 HD
HETATM   60  C           0      12.764 -18.320  -2.416  0.00  0.00     0.248 C 
HETATM   61  O           0      13.944 -18.457  -2.756  0.00  0.00    -0.271 OA
BRANCH  60  62
HETATM   62  C           0      12.477 -17.890  -0.973  0.00  0.00     0.275 C 
BRANCH  62  63
HETATM   63  N           0      13.730 -17.496  -0.208  0.00  0.00    -0.066 N 
HETATM   64  H           0      14.242 -16.731  -0.661  0.00  0.00     0.275 HD
HETATM   65  H           0      13.554 -17.228   0.765  0.00  0.00     0.275 HD
HETATM   66  H           0      14.371 -18.295  -0.170  0.00  0.00     0.275 HD
ENDBRANCH  62  63
BRANCH  62  67
HETATM   67  C           0      11.434 -16.769  -0.830  0.00  0.00     0.053 C 
BRANCH  67  68
HETATM   68  C           0      10.685 -16.767   0.508  0.00  0.00     0.115 C 
BRANCH  68  69
HETATM   69  C           0       9.197 -16.368   0.472  0.00  0.00     0.172 C 
HETATM   70  O           0       8.595 -16.165   1.559  0.00  0.00    -0.648 OA
HETATM   71  O           0       8.670 -16.290  -0.685  0.00  0.00    -0.648 OA
ENDBRANCH  68  69
ENDBRANCH  67  68
ENDBRANCH  62  67
ENDBRANCH  60  62
ENDBRANCH  57  58
ENDBRANCH  55  57
ENDBRANCH  52  53
BRANCH  52  72
HETATM   72  C           0      11.877 -23.210  -2.651  0.00  0.00     0.038 C 
BRANCH  72  73
HETATM   73  C           0      12.271 -22.121  -1.634  0.00  0.00    -0.020 C 
HETATM   74  C           0      11.697 -22.387  -0.235  0.00  0.00     0.009 C 
HETATM   75  C           0      13.803 -22.007  -1.585  0.00  0.00     0.009 C 
ENDBRANCH  72  73
ENDBRANCH  52  72
ENDBRANCH  50  52
ENDBRANCH  41  48
ENDBRANCH   1  41
TORSDOF 28
ENDMDL
MODEL 2
REMARK VINA RESULT:      -5.6      2.120      3.449
REMARK  28 active torsions:
REMARK  status: ('A' for Active; 'I' for Inactive)
REMARK       I    between atoms: C_1  and  N_3 
REMARK    1  A    between atoms: C_1  and  C_41 
REMARK    2  A    between atoms: N_3  and  C_5 
REMARK    3  A    between atoms: C_5  and  C_6 
REMARK    4  A    between atoms: C_5  and  C_18 
REMARK       I    between atoms: C_18  and  N_19 
REMARK    5  A    between atoms: C_20  and  C_25 
REMARK       I    between atoms: C_25  and  N_26 
REMARK    6  A    between atoms: N_26  and  C_29 
REMARK    7  A    between atoms: C_29  and  C_30 
REMARK    8  A    between atoms: C_29  and  C_38 
REMARK       I    between atoms: C_30  and  N_31 
REMARK    9  A    between atoms: N_31  and  C_34 
REMARK   10  A    between atoms: C_34  and  C_35 
REMARK   11  A    between atoms: C_38  and  O_39 
REMARK   12  A    between atoms: C_6  and  C_7 
REMARK   13  A    between atoms: C_7  and  C_8 
REMARK   14  A    between atoms: C_8  and  N_9 
REMARK       I    between atoms: N_9  and  C_10 
REMARK       I    between atoms: C_10  and  N_12 
REMARK   15  A    between atoms: C_41  and  C_42 
REMARK   16  A    between atoms: C_41  and  N_48 
REMARK       I    between atoms: N_48  and  C_50 
REMARK   17  A    between atoms: C_50  and  C_52 
REMARK   18  A    between atoms: C_52  and  N_53 
REMARK   19  A    between atoms: C_52  and  C_72 
REMARK       I    between atoms: N_53  and  C_55 
REMARK   20  A    between atoms: C_55  and  C_57 
REMARK   21  A    between atoms: C_57  and  N_58 
REMARK       I    between atoms: N_58  and  C_60 
REMARK   22  A    between atoms: C_60  and  C_62 
REMARK   23  A    between atoms: C_62  and  N_63 
REMARK   24  A    between atoms: C_62  and  C_67 
REMARK   25  A    between atoms: C_67  and  C_68 
REMARK   26  A    between atoms: C_68  and  C_69 
REMARK   27  A    between atoms: C_72  and  C_73 
REMARK   28  A    between atoms: C_42  and  C_43 
REMARK       I    between atoms: C_43  and  N_44 
ROOT
HETATM    1  C           0       8.420 -24.279  -6.117  0.00  0.00     0.241 C 
HETATM    2  O           0       8.356 -23.804  -4.978  0.00  0.00    -0.271 OA
HETATM    3  N           0       7.548 -25.221  -6.548  0.00  0.00    -0.346 N 
HETATM    4  H           0       7.656 -25.611  -7.476  0.00  0.00     0.163 HD
ENDROOT
BRANCH   3   5
HETATM    5  C           0       6.380 -25.568  -5.740  0.00  0.00     0.176 C 
BRANCH   5   6
HETATM    6  C           0       5.091 -24.961  -6.316  0.00  0.00     0.036 C 
BRANCH   6   7
HETATM    7  C           0       4.115 -24.579  -5.197  0.00  0.00     0.023 C 
BRANCH   7   8
HETATM    8  C           0       2.890 -23.798  -5.673  0.00  0.00     0.138 C 
BRANCH   8   9
HETATM    9  N           0       2.434 -24.414  -6.917  0.00  0.00    -0.227 N 
HETATM   10  C           0       1.447 -25.295  -7.054  0.00  0.00     0.665 C 
HETATM   11  N           0       0.775 -25.772  -5.997  0.00  0.00    -0.235 N 
HETATM   12  N           0       1.132 -25.688  -8.302  0.00  0.00    -0.235 N 
HETATM   13  H           0      -0.059 -26.324  -6.125  0.00  0.00     0.174 HD
HETATM   14  H           0       0.956 -25.421  -5.070  0.00  0.00     0.174 HD
HETATM   15  H           0       0.574 -26.515  -8.448  0.00  0.00     0.174 HD
HETATM   16  H           0       1.773 -25.384  -9.038  0.00  0.00     0.174 HD
HETATM   17  H           0       2.917 -24.185  -7.802  0.00  0.00     0.177 HD
ENDBRANCH   8   9
ENDBRANCH   7   8
ENDBRANCH   6   7
ENDBRANCH   5   6
BRANCH   5  18
HETATM   18  C           0       6.240 -27.065  -5.388  0.00  0.00     0.243 C 
HETATM   19  N           0       6.900 -27.588  -4.319  0.00  0.00    -0.337 N 
HETATM   20  C           0       6.652 -28.987  -3.933  0.00  0.00     0.179 C 
HETATM   21  C           0       8.168 -27.106  -3.729  0.00  0.00     0.127 C 
HETATM   22  C           0       7.975 -29.455  -3.264  0.00  0.00     0.037 C 
HETATM   23  C           0       9.006 -28.387  -3.664  0.00  0.00     0.022 C 
HETATM   24  O           0       5.460 -27.736  -6.070  0.00  0.00    -0.271 OA
BRANCH  20  25
HETATM   25  C           0       5.465 -29.196  -2.977  0.00  0.00     0.241 C 
HETATM   26  N           0       4.230 -28.838  -3.412  0.00  0.00    -0.344 N 
HETATM   27  H           0       4.115 -28.456  -4.348  0.00  0.00     0.163 HD
HETATM   28  O           0       5.678 -29.661  -1.855  0.00  0.00    -0.271 OA
BRANCH  26  29
HETATM   29  C           0       3.077 -28.821  -2.523  0.00  0.00     0.200 C 
BRANCH  29  30
HETATM   30  C           0       2.144 -30.045  -2.612  0.00  0.00     0.242 C 
HETATM   31  N           0       1.252 -30.229  -1.628  0.00  0.00    -0.354 N 
HETATM   32  H           0       1.132 -29.573  -0.860  0.00  0.00     0.162 HD
HETATM   33  O           0       2.257 -30.811  -3.581  0.00  0.00    -0.271 OA
BRANCH  31  34
HETATM   34  C           0       0.285 -31.311  -1.616  0.00  0.00     0.203 C 
BRANCH  34  35
HETATM   35  C           0       0.686 -32.384  -0.564  0.00  0.00     0.307 C 
HETATM   36  O           0       0.977 -33.525  -1.015  0.00  0.00    -0.186 OA
HETATM   37  O           0       0.677 -31.992   0.627  0.00  0.00    -0.186 OA
ENDBRANCH  34  35
ENDBRANCH  31  34
ENDBRANCH  29  30
BRANCH  29  38
HETATM   38  C           0       2.250 -27.532  -2.712  0.00  0.00     0.199 C 
BRANCH  38  39
HETATM   39  O           0       1.156 -27.706  -3.595  0.00  0.00    -0.398 OA
HETATM   40  H           0       1.393 -28.342  -4.291  0.00  0.00     0.209 HD
ENDBRANCH  38  39
ENDBRANCH  29  38
ENDBRANCH  26  29
ENDBRANCH  20  25
ENDBRANCH   5  18
ENDBRANCH   3   5
BRANCH   1  41
HETATM   41  C           0       9.475 -23.786  -7.130  0.00  0.00     0.185 C 
BRANCH  41  42
HETATM   42  C           0       9.999 -24.917  -8.035  0.00  0.00     0.137 C 
BRANCH  42  43
HETATM   43  C           0      11.262 -25.612  -7.528  0.00  0.00     0.217 C 
HETATM   44  N           0      11.025 -26.648  -6.694  0.00  0.00    -0.370 N 
HETATM   45  H           0      11.825 -27.076  -6.248  0.00  0.00     0.159 HD
HETATM   46  H           0      10.081 -26.898  -6.374  0.00  0.00     0.159 HD
HETATM   47  O           0      12.391 -25.221  -7.836  0.00  0.00    -0.274 OA
ENDBRANCH  42  43
ENDBRANCH  41  42
BRANCH  41  48
HETATM   48  N           0      10.630 -23.186  -6.473  0.00  0.00    -0.346 N 
HETATM   49  H           0      10.978 -23.620  -5.628  0.00  0.00     0.163 HD
HETATM   50  C           0      11.204 -22.033  -6.873  0.00  0.00     0.241 C 
HETATM   51  O           0      10.786 -21.361  -7.823  0.00  0.00    -0.271 OA
BRANCH  50  52
HETATM   52  C           0      12.457 -21.583  -6.097  0.00  0.00     0.177 C 
BRANCH  52  53
HETATM   53  N           0      12.322 -20.233  -5.557  0.00  0.00    -0.346 N 
HETATM   54  H           0      11.724 -20.086  -4.753  0.00  0.00     0.163 HD
HETATM   55  C           0      13.069 -19.196  -6.022  0.00  0.00     0.236 C 
HETATM   56  O           0      13.901 -19.317  -6.917  0.00  0.00    -0.272 OA
BRANCH  55  57
HETATM   57  C           0      12.844 -17.834  -5.349  0.00  0.00     0.225 C 
BRANCH  57  58
HETATM   58  N           0      11.894 -17.863  -4.238  0.00  0.00    -0.351 N 
HETATM   59  H           0      10.918 -17.980  -4.469  0.00  0.00     0.163 HD
HETATM   60  C           0      12.352 -18.026  -2.975  0.00  0.00     0.248 C 
HETATM   61  O           0      13.562 -18.061  -2.727  0.00  0.00    -0.271 OA
BRANCH  60  62
HETATM   62  C           0      11.374 -18.142  -1.800  0.00  0.00     0.275 C 
BRANCH  62  63
HETATM   63  N           0      11.717 -19.275  -0.849  0.00  0.00    -0.066 N 
HETATM   64  H           0      10.887 -19.669  -0.391  0.00  0.00     0.275 HD
HETATM   65  H           0      12.232 -20.044  -1.289  0.00  0.00     0.275 HD
HETATM   66  H           0      12.322 -18.921  -0.101  0.00  0.00     0.275 HD
ENDBRANCH  62  63
BRANCH  62  67
HETATM   67  C           0      11.186 -16.850  -0.989  0.00  0.00     0.053 C 
BRANCH  67  68
HETATM   68  C           0       9.761 -16.630  -0.467  0.00  0.00     0.115 C 
BRANCH  68  69
HETATM   69  C           0       9.616 -16.249   1.019  0.00  0.00     0.172 C 
HETATM   70  O           0      10.648 -15.939   1.671  0.00  0.00    -0.648 OA
HETATM   71  O           0       8.435 -16.297   1.493  0.00  0.00    -0.648 OA
ENDBRANCH  68  69
ENDBRANCH  67  68
ENDBRANCH  62  67
ENDBRANCH  60  62
ENDBRANCH  57  58
ENDBRANCH  55  57
ENDBRANCH  52  53
BRANCH  52  72
HETATM   72  C           0      12.794 -22.555  -4.943  0.00  0.00     0.038 C 
BRANCH  72  73
HETATM   73  C           0      12.564 -22.043  -3.508  0.00  0.00    -0.020 C 
HETATM   74  C           0      11.168 -22.394  -2.974  0.00  0.00     0.009 C 
HETATM   75  C           0      13.660 -22.608  -2.590  0.00  0.00     0.009 C 
ENDBRANCH  72  73
ENDBRANCH  52  72
ENDBRANCH  50  52
ENDBRANCH  41  48
ENDBRANCH   1  41
TORSDOF 28
ENDMDL
MODEL 3
REMARK VINA RESULT:      -5.3      7.739     12.338
REMARK  28 active torsions:
REMARK  status: ('A' for Active; 'I' for Inactive)
REMARK       I    between atoms: C_1  and  N_3 
REMARK    1  A    between atoms: C_1  and  C_41 
REMARK    2  A    between atoms: N_3  and  C_5 
REMARK    3  A    between atoms: C_5  and  C_6 
REMARK    4  A    between atoms: C_5  and  C_18 
REMARK       I    between atoms: C_18  and  N_19 
REMARK    5  A    between atoms: C_20  and  C_25 
REMARK       I    between atoms: C_25  and  N_26 
REMARK    6  A    between atoms: N_26  and  C_29 
REMARK    7  A    between atoms: C_29  and  C_30 
REMARK    8  A    between atoms: C_29  and  C_38 
REMARK       I    between atoms: C_30  and  N_31 
REMARK    9  A    between atoms: N_31  and  C_34 
REMARK   10  A    between atoms: C_34  and  C_35 
REMARK   11  A    between atoms: C_38  and  O_39 
REMARK   12  A    between atoms: C_6  and  C_7 
REMARK   13  A    between atoms: C_7  and  C_8 
REMARK   14  A    between atoms: C_8  and  N_9 
REMARK       I    between atoms: N_9  and  C_10 
REMARK       I    between atoms: C_10  and  N_12 
REMARK   15  A    between atoms: C_41  and  C_42 
REMARK   16  A    between atoms: C_41  and  N_48 
REMARK       I    between atoms: N_48  and  C_50 
REMARK   17  A    between atoms: C_50  and  C_52 
REMARK   18  A    between atoms: C_52  and  N_53 
REMARK   19  A    between atoms: C_52  and  C_72 
REMARK       I    between atoms: N_53  and  C_55 
REMARK   20  A    between atoms: C_55  and  C_57 
REMARK   21  A    between atoms: C_57  and  N_58 
REMARK       I    between atoms: N_58  and  C_60 
REMARK   22  A    between atoms: C_60  and  C_62 
REMARK   23  A    between atoms: C_62  and  N_63 
REMARK   24  A    between atoms: C_62  and  C_67 
REMARK   25  A    between atoms: C_67  and  C_68 
REMARK   26  A    between atoms: C_68  and  C_69 
REMARK   27  A    between atoms: C_72  and  C_73 
REMARK   28  A    between atoms: C_42  and  C_43 
REMARK       I    between atoms: C_43  and  N_44 
ROOT
HETATM    1  C           0      12.563 -18.930  -0.295  0.00  0.00     0.241 C 
HETATM    2  O           0      13.795 -18.823  -0.308  0.00  0.00    -0.271 OA
HETATM    3  N           0      11.943 -20.072  -0.674  0.00  0.00    -0.346 N 
HETATM    4  H           0      10.930 -20.109  -0.683  0.00  0.00     0.163 HD
ENDROOT
BRANCH   3   5
HETATM    5  C           0      12.720 -21.283  -0.930  0.00  0.00     0.176 C 
BRANCH   5   6
HETATM    6  C           0      12.049 -22.527  -0.325  0.00  0.00     0.036 C 
BRANCH   6   7
HETATM    7  C           0      13.083 -23.440   0.343  0.00  0.00     0.023 C 
BRANCH   7   8
HETATM    8  C           0      13.463 -23.022   1.764  0.00  0.00     0.138 C 
BRANCH   8   9
HETATM    9  N           0      12.302 -22.356   2.349  0.00  0.00    -0.227 N 
HETATM   10  C           0      12.273 -21.149   2.907  0.00  0.00     0.665 C 
HETATM   11  N           0      13.382 -20.409   3.046  0.00  0.00    -0.235 N 
HETATM   12  N           0      11.081 -20.683   3.323  0.00  0.00    -0.235 N 
HETATM   13  H           0      13.323 -19.445   3.337  0.00  0.00     0.174 HD
HETATM   14  H           0      14.261 -20.721   2.665  0.00  0.00     0.174 HD
HETATM   15  H           0      11.035 -19.902   3.959  0.00  0.00     0.174 HD
HETATM   16  H           0      10.310 -21.355   3.305  0.00  0.00     0.174 HD
HETATM   17  H           0      11.393 -22.849   2.371  0.00  0.00     0.177 HD
ENDBRANCH   8   9
ENDBRANCH   7   8
ENDBRANCH   6   7
ENDBRANCH   5   6
BRANCH   5  18
HETATM   18  C           0      13.164 -21.488  -2.395  0.00  0.00     0.243 C 
HETATM   19  N           0      12.240 -21.679  -3.375  0.00  0.00    -0.337 N 
HETATM   20  C           0      12.682 -21.747  -4.779  0.00  0.00     0.179 C 
HETATM   21  C           0      10.892 -22.269  -3.229  0.00  0.00     0.127 C 
HETATM   22  C           0      11.633 -22.654  -5.482  0.00  0.00     0.037 C 
HETATM   23  C           0      10.880 -23.336  -4.329  0.00  0.00     0.022 C 
HETATM   24  O           0      14.371 -21.401  -2.638  0.00  0.00    -0.271 OA
BRANCH  20  25
HETATM   25  C           0      12.783 -20.389  -5.493  0.00  0.00     0.241 C 
HETATM   26  N           0      13.648 -19.471  -4.992  0.00  0.00    -0.344 N 
HETATM   27  H           0      14.209 -19.699  -4.175  0.00  0.00     0.163 HD
HETATM   28  O           0      12.070 -20.179  -6.478  0.00  0.00    -0.271 OA
BRANCH  26  29
HETATM   29  C           0      13.681 -18.099  -5.480  0.00  0.00     0.200 C 
BRANCH  29  30
HETATM   30  C           0      15.016 -17.639  -6.098  0.00  0.00     0.242 C 
HETATM   31  N           0      15.920 -17.068  -5.290  0.00  0.00    -0.354 N 
HETATM   32  H           0      15.784 -16.973  -4.286  0.00  0.00     0.162 HD
HETATM   33  O           0      15.199 -17.810  -7.313  0.00  0.00    -0.271 OA
BRANCH  31  34
HETATM   34  C           0      17.232 -16.636  -5.735  0.00  0.00     0.203 C 
BRANCH  34  35
HETATM   35  C           0      18.153 -16.353  -4.514  0.00  0.00     0.307 C 
HETATM   36  O           0      17.572 -16.061  -3.434  0.00  0.00    -0.186 OA
HETATM   37  O           0      19.383 -16.448  -4.741  0.00  0.00    -0.186 OA
ENDBRANCH  34  35
ENDBRANCH  31  34
ENDBRANCH  29  30
BRANCH  29  38
HETATM   38  C           0      13.260 -17.108  -4.374  0.00  0.00     0.199 C 
BRANCH  38  39
HETATM   39  O           0      13.812 -17.428  -3.111  0.00  0.00    -0.398 OA
HETATM   40  H           0      14.087 -16.614  -2.655  0.00  0.00     0.209 HD
ENDBRANCH  38  39
ENDBRANCH  29  38
ENDBRANCH  26  29
ENDBRANCH  20  25
ENDBRANCH   5  18
ENDBRANCH   3   5
BRANCH   1  41
HETATM   41  C           0      11.666 -17.777   0.203  0.00  0.00     0.185 C 
BRANCH  41  42
HETATM   42  C           0      11.028 -16.985  -0.954  0.00  0.00     0.137 C 
BRANCH  42  43
HETATM   43  C           0       9.551 -16.643  -0.759  0.00  0.00     0.217 C 
HETATM   44  N           0       8.815 -16.714  -1.890  0.00  0.00    -0.370 N 
HETATM   45  H           0       7.856 -16.398  -1.839  0.00  0.00     0.159 HD
HETATM   46  H           0       9.228 -16.910  -2.809  0.00  0.00     0.159 HD
HETATM   47  O           0       9.099 -16.299   0.336  0.00  0.00    -0.274 OA
ENDBRANCH  42  43
ENDBRANCH  41  42
BRANCH  41  48
HETATM   48  N           0      12.401 -16.825   1.027  0.00  0.00    -0.346 N 
HETATM   49  H           0      12.915 -16.088   0.562  0.00  0.00     0.163 HD
HETATM   50  C           0      12.515 -16.925   2.367  0.00  0.00     0.241 C 
HETATM   51  O           0      12.024 -17.853   3.022  0.00  0.00    -0.271 OA
BRANCH  50  52
HETATM   52  C           0      13.277 -15.792   3.080  0.00  0.00     0.177 C 
BRANCH  52  53
HETATM   53  N           0      14.319 -15.209   2.240  0.00  0.00    -0.346 N 
HETATM   54  H           0      14.102 -14.985   1.278  0.00  0.00     0.163 HD
HETATM   55  C           0      15.529 -14.844   2.745  0.00  0.00     0.236 C 
HETATM   56  O           0      15.827 -14.977   3.929  0.00  0.00    -0.272 OA
BRANCH  55  57
HETATM   57  C           0      16.524 -14.220   1.758  0.00  0.00     0.225 C 
BRANCH  57  58
HETATM   58  N           0      16.186 -12.860   1.344  0.00  0.00    -0.351 N 
HETATM   59  H           0      15.321 -12.473   1.693  0.00  0.00     0.163 HD
HETATM   60  C           0      17.138 -12.081   0.778  0.00  0.00     0.248 C 
HETATM   61  O           0      18.263 -12.522   0.519  0.00  0.00    -0.271 OA
BRANCH  60  62
HETATM   62  C           0      16.834 -10.624   0.410  0.00  0.00     0.275 C 
BRANCH  62  63
HETATM   63  N           0      15.348 -10.307   0.409  0.00  0.00    -0.066 N 
HETATM   64  H           0      15.158  -9.310   0.258  0.00  0.00     0.275 HD
HETATM   65  H           0      14.812 -10.841  -0.281  0.00  0.00     0.275 HD
HETATM   66  H           0      14.949 -10.545   1.323  0.00  0.00     0.275 HD
ENDBRANCH  62  63
BRANCH  62  67
HETATM   67  C           0      17.566  -9.577   1.266  0.00  0.00     0.053 C 
BRANCH  67  68
HETATM   68  C           0      17.570  -9.878   2.769  0.00  0.00     0.115 C 
BRANCH  68  69
HETATM   69  C           0      16.237  -9.684   3.520  0.00  0.00     0.172 C 
HETATM   70  O           0      15.982  -8.560   4.025  0.00  0.00    -0.648 OA
HETATM   71  O           0      15.485 -10.709   3.591  0.00  0.00    -0.648 OA
ENDBRANCH  68  69
ENDBRANCH  67  68
ENDBRANCH  62  67
ENDBRANCH  60  62
ENDBRANCH  57  58
ENDBRANCH  55  57
ENDBRANCH  52  53
BRANCH  52  72
HETATM   72  C           0      12.324 -14.670   3.551  0.00  0.00     0.038 C 
BRANCH  72  73
HETATM   73  C           0      12.101 -13.491   2.585  0.00  0.00    -0.020 C 
HETATM   74  C           0      10.765 -13.589   1.834  0.00  0.00     0.009 C 
HETATM   75  C           0      12.192 -12.172   3.370  0.00  0.00     0.009 C 
ENDBRANCH  72  73
ENDBRANCH  52  72
ENDBRANCH  50  52
ENDBRANCH  41  48
ENDBRANCH   1  41
TORSDOF 28
ENDMDL
MODEL 4
REMARK VINA RESULT:      -5.3      4.228     14.401
REMARK  28 active torsions:
REMARK  status: ('A' for Active; 'I' for Inactive)
REMARK       I    between atoms: C_1  and  N_3 
REMARK    1  A    between atoms: C_1  and  C_41 
REMARK    2  A    between atoms: N_3  and  C_5 
REMARK    3  A    between atoms: C_5  and  C_6 
REMARK    4  A    between atoms: C_5  and  C_18 
REMARK       I    between atoms: C_18  and  N_19 
REMARK    5  A    between atoms: C_20  and  C_25 
REMARK       I    between atoms: C_25  and  N_26 
REMARK    6  A    between atoms: N_26  and  C_29 
REMARK    7  A    between atoms: C_29  and  C_30 
REMARK    8  A    between atoms: C_29  and  C_38 
REMARK       I    between atoms: C_30  and  N_31 
REMARK    9  A    between atoms: N_31  and  C_34 
REMARK   10  A    between atoms: C_34  and  C_35 
REMARK   11  A    between atoms: C_38  and  O_39 
REMARK   12  A    between atoms: C_6  and  C_7 
REMARK   13  A    between atoms: C_7  and  C_8 
REMARK   14  A    between atoms: C_8  and  N_9 
REMARK       I    between atoms: N_9  and  C_10 
REMARK       I    between atoms: C_10  and  N_12 
REMARK   15  A    between atoms: C_41  and  C_42 
REMARK   16  A    between atoms: C_41  and  N_48 
REMARK       I    between atoms: N_48  and  C_50 
REMARK   17  A    between atoms: C_50  and  C_52 
REMARK   18  A    between atoms: C_52  and  N_53 
REMARK   19  A    between atoms: C_52  and  C_72 
REMARK       I    between atoms: N_53  and  C_55 
REMARK   20  A    between atoms: C_55  and  C_57 
REMARK   21  A    between atoms: C_57  and  N_58 
REMARK       I    between atoms: N_58  and  C_60 
REMARK   22  A    between atoms: C_60  and  C_62 
REMARK   23  A    between atoms: C_62  and  N_63 
REMARK   24  A    between atoms: C_62  and  C_67 
REMARK   25  A    between atoms: C_67  and  C_68 
REMARK   26  A    between atoms: C_68  and  C_69 
REMARK   27  A    between atoms: C_72  and  C_73 
REMARK   28  A    between atoms: C_42  and  C_43 
REMARK       I    between atoms: C_43  and  N_44 
ROOT
HETATM    1  C           0      12.746 -20.519   0.370  0.00  0.00     0.241 C 
HETATM    2  O           0      13.955 -20.467   0.116  0.00  0.00    -0.271 OA
HETATM    3  N           0      12.024 -19.403   0.628  0.00  0.00    -0.346 N 
HETATM    4  H           0      11.043 -19.491   0.866  0.00  0.00     0.163 HD
ENDROOT
BRANCH   3   5
HETATM    5  C           0      12.612 -18.081   0.427  0.00  0.00     0.176 C 
BRANCH   5   6
HETATM    6  C           0      11.836 -17.267  -0.621  0.00  0.00     0.036 C 
BRANCH   6   7
HETATM    7  C           0      12.461 -17.425  -2.012  0.00  0.00     0.023 C 
BRANCH   7   8
HETATM    8  C           0      11.443 -17.559  -3.145  0.00  0.00     0.138 C 
BRANCH   8   9
HETATM    9  N           0      11.617 -18.883  -3.736  0.00  0.00    -0.227 N 
HETATM   10  C           0      12.111 -19.160  -4.939  0.00  0.00     0.665 C 
HETATM   11  N           0      12.463 -18.192  -5.797  0.00  0.00    -0.235 N 
HETATM   12  N           0      12.259 -20.456  -5.269  0.00  0.00    -0.235 N 
HETATM   13  H           0      12.966 -18.413  -6.643  0.00  0.00     0.174 HD
HETATM   14  H           0      12.428 -17.223  -5.523  0.00  0.00     0.174 HD
HETATM   15  H           0      12.393 -20.723  -6.233  0.00  0.00     0.174 HD
HETATM   16  H           0      11.846 -21.129  -4.620  0.00  0.00     0.174 HD
HETATM   17  H           0      11.318 -19.718  -3.204  0.00  0.00     0.177 HD
ENDBRANCH   8   9
ENDBRANCH   7   8
ENDBRANCH   6   7
ENDBRANCH   5   6
BRANCH   5  18
HETATM   18  C           0      12.904 -17.283   1.718  0.00  0.00     0.243 C 
HETATM   19  N           0      14.128 -16.726   1.923  0.00  0.00    -0.337 N 
HETATM   20  C           0      14.341 -15.868   3.101  0.00  0.00     0.179 C 
HETATM   21  C           0      15.423 -17.192   1.383  0.00  0.00     0.127 C 
HETATM   22  C           0      15.851 -16.022   3.437  0.00  0.00     0.037 C 
HETATM   23  C           0      16.298 -17.258   2.639  0.00  0.00     0.022 C 
HETATM   24  O           0      11.967 -17.120   2.506  0.00  0.00    -0.271 OA
BRANCH  20  25
HETATM   25  C           0      13.985 -14.386   2.896  0.00  0.00     0.241 C 
HETATM   26  N           0      14.982 -13.536   2.542  0.00  0.00    -0.344 N 
HETATM   27  H           0      15.926 -13.891   2.411  0.00  0.00     0.163 HD
HETATM   28  O           0      12.819 -14.024   3.074  0.00  0.00    -0.271 OA
BRANCH  26  29
HETATM   29  C           0      14.787 -12.094   2.506  0.00  0.00     0.200 C 
BRANCH  29  30
HETATM   30  C           0      15.520 -11.345   1.376  0.00  0.00     0.242 C 
HETATM   31  N           0      16.825 -11.594   1.200  0.00  0.00    -0.354 N 
HETATM   32  H           0      17.334 -12.288   1.743  0.00  0.00     0.162 HD
HETATM   33  O           0      14.879 -10.542   0.681  0.00  0.00    -0.271 OA
BRANCH  31  34
HETATM   34  C           0      17.619 -10.994   0.144  0.00  0.00     0.203 C 
BRANCH  34  35
HETATM   35  C           0      18.001 -12.062  -0.921  0.00  0.00     0.307 C 
HETATM   36  O           0      18.803 -11.691  -1.820  0.00  0.00    -0.186 OA
HETATM   37  O           0      17.465 -13.186  -0.765  0.00  0.00    -0.186 OA
ENDBRANCH  34  35
ENDBRANCH  31  34
ENDBRANCH  29  30
BRANCH  29  38
HETATM   38  C           0      15.146 -11.452   3.863  0.00  0.00     0.199 C 
BRANCH  38  39
HETATM   39  O           0      15.400 -10.063   3.762  0.00  0.00    -0.398 OA
HETATM   40  H           0      16.033  -9.793   4.450  0.00  0.00     0.209 HD
ENDBRANCH  38  39
ENDBRANCH  29  38
ENDBRANCH  26  29
ENDBRANCH  20  25
ENDBRANCH   5  18
ENDBRANCH   3   5
BRANCH   1  41
HETATM   41  C           0      11.984 -21.860   0.356  0.00  0.00     0.185 C 
BRANCH  41  42
HETATM   42  C           0      12.188 -22.667   1.653  0.00  0.00     0.137 C 
BRANCH  42  43
HETATM   43  C           0      13.376 -23.630   1.630  0.00  0.00     0.217 C 
HETATM   44  N           0      14.543 -23.075   2.021  0.00  0.00    -0.370 N 
HETATM   45  H           0      15.378 -23.636   1.925  0.00  0.00     0.159 HD
HETATM   46  H           0      14.636 -22.076   2.244  0.00  0.00     0.159 HD
HETATM   47  O           0      13.263 -24.797   1.248  0.00  0.00    -0.274 OA
ENDBRANCH  42  43
ENDBRANCH  41  42
BRANCH  41  48
HETATM   48  N           0      12.392 -22.713  -0.754  0.00  0.00    -0.346 N 
HETATM   49  H           0      13.040 -23.467  -0.565  0.00  0.00     0.163 HD
HETATM   50  C           0      12.030 -22.498  -2.035  0.00  0.00     0.241 C 
HETATM   51  O           0      11.336 -21.539  -2.392  0.00  0.00    -0.271 OA
BRANCH  50  52
HETATM   52  C           0      12.502 -23.539  -3.068  0.00  0.00     0.177 C 
BRANCH  52  53
HETATM   53  N           0      11.584 -23.661  -4.195  0.00  0.00    -0.346 N 
HETATM   54  H           0      11.555 -22.920  -4.884  0.00  0.00     0.163 HD
HETATM   55  C           0      10.862 -24.793  -4.415  0.00  0.00     0.236 C 
HETATM   56  O           0      10.929 -25.782  -3.690  0.00  0.00    -0.272 OA
BRANCH  55  57
HETATM   57  C           0       9.953 -24.796  -5.652  0.00  0.00     0.225 C 
BRANCH  57  58
HETATM   58  N           0       8.566 -25.169  -5.377  0.00  0.00    -0.351 N 
HETATM   59  H           0       8.364 -26.153  -5.275  0.00  0.00     0.163 HD
HETATM   60  C           0       7.687 -24.217  -4.985  0.00  0.00     0.248 C 
HETATM   61  O           0       8.005 -23.024  -4.941  0.00  0.00    -0.271 OA
BRANCH  60  62
HETATM   62  C           0       6.248 -24.592  -4.611  0.00  0.00     0.275 C 
BRANCH  62  63
HETATM   63  N           0       5.206 -23.810  -5.394  0.00  0.00    -0.066 N 
HETATM   64  H           0       5.441 -22.815  -5.476  0.00  0.00     0.275 HD
HETATM   65  H           0       5.036 -24.175  -6.336  0.00  0.00     0.275 HD
HETATM   66  H           0       4.306 -23.858  -4.905  0.00  0.00     0.275 HD
ENDBRANCH  62  63
BRANCH  62  67
HETATM   67  C           0       5.926 -26.092  -4.715  0.00  0.00     0.053 C 
BRANCH  67  68
HETATM   68  C           0       5.009 -26.621  -3.605  0.00  0.00     0.115 C 
BRANCH  68  69
HETATM   69  C           0       3.499 -26.664  -3.912  0.00  0.00     0.172 C 
HETATM   70  O           0       3.079 -26.128  -4.971  0.00  0.00    -0.648 OA
HETATM   71  O           0       2.770 -27.236  -3.039  0.00  0.00    -0.648 OA
ENDBRANCH  68  69
ENDBRANCH  67  68
ENDBRANCH  62  67
ENDBRANCH  60  62
ENDBRANCH  57  58
ENDBRANCH  55  57
ENDBRANCH  52  53
BRANCH  52  72
HETATM   72  C           0      13.916 -23.213  -3.602  0.00  0.00     0.038 C 
BRANCH  72  73
HETATM   73  C           0      15.098 -23.950  -2.944  0.00  0.00    -0.020 C 
HETATM   74  C           0      15.769 -23.120  -1.839  0.00  0.00     0.009 C 
HETATM   75  C           0      14.609 -25.299  -2.393  0.00  0.00     0.009 C 
ENDBRANCH  72  73
ENDBRANCH  52  72
ENDBRANCH  50  52
ENDBRANCH  41  48
ENDBRANCH   1  41
TORSDOF 28
ENDMDL
MODEL 5
REMARK VINA RESULT:      -5.2      4.517      9.617
REMARK  28 active torsions:
REMARK  status: ('A' for Active; 'I' for Inactive)
REMARK       I    between atoms: C_1  and  N_3 
REMARK    1  A    between atoms: C_1  and  C_41 
REMARK    2  A    between atoms: N_3  and  C_5 
REMARK    3  A    between atoms: C_5  and  C_6 
REMARK    4  A    between atoms: C_5  and  C_18 
REMARK       I    between atoms: C_18  and  N_19 
REMARK    5  A    between atoms: C_20  and  C_25 
REMARK       I    between atoms: C_25  and  N_26 
REMARK    6  A    between atoms: N_26  and  C_29 
REMARK    7  A    between atoms: C_29  and  C_30 
REMARK    8  A    between atoms: C_29  and  C_38 
REMARK       I    between atoms: C_30  and  N_31 
REMARK    9  A    between atoms: N_31  and  C_34 
REMARK   10  A    between atoms: C_34  and  C_35 
REMARK   11  A    between atoms: C_38  and  O_39 
REMARK   12  A    between atoms: C_6  and  C_7 
REMARK   13  A    between atoms: C_7  and  C_8 
REMARK   14  A    between atoms: C_8  and  N_9 
REMARK       I    between atoms: N_9  and  C_10 
REMARK       I    between atoms: C_10  and  N_12 
REMARK   15  A    between atoms: C_41  and  C_42 
REMARK   16  A    between atoms: C_41  and  N_48 
REMARK       I    between atoms: N_48  and  C_50 
REMARK   17  A    between atoms: C_50  and  C_52 
REMARK   18  A    between atoms: C_52  and  N_53 
REMARK   19  A    between atoms: C_52  and  C_72 
REMARK       I    between atoms: N_53  and  C_55 
REMARK   20  A    between atoms: C_55  and  C_57 
REMARK   21  A    between atoms: C_57  and  N_58 
REMARK       I    between atoms: N_58  and  C_60 
REMARK   22  A    between atoms: C_60  and  C_62 
REMARK   23  A    between atoms: C_62  and  N_63 
REMARK   24  A    between atoms: C_62  and  C_67 
REMARK   25  A    between atoms: C_67  and  C_68 
REMARK   26  A    between atoms: C_68  and  C_69 
REMARK   27  A    between atoms: C_72  and  C_73 
REMARK   28  A    between atoms: C_42  and  C_43 
REMARK       I    between atoms: C_43  and  N_44 
ROOT
HETATM    1  C           0      12.395 -18.947  -1.345  0.00  0.00     0.241 C 
HETATM    2  O           0      13.585 -18.796  -1.646  0.00  0.00    -0.271 OA
HETATM    3  N           0      11.701 -20.049  -1.714  0.00  0.00    -0.346 N 
HETATM    4  H           0      10.718 -20.119  -1.478  0.00  0.00     0.163 HD
ENDROOT
BRANCH   3   5
HETATM    5  C           0      12.391 -21.187  -2.318  0.00  0.00     0.176 C 
BRANCH   5   6
HETATM    6  C           0      12.124 -22.489  -1.544  0.00  0.00     0.036 C 
BRANCH   6   7
HETATM    7  C           0      12.746 -22.433  -0.144  0.00  0.00     0.023 C 
BRANCH   7   8
HETATM    8  C           0      11.863 -23.021   0.957  0.00  0.00     0.138 C 
BRANCH   8   9
HETATM    9  N           0      11.271 -21.903   1.687  0.00  0.00    -0.227 N 
HETATM   10  C           0      11.555 -21.522   2.929  0.00  0.00     0.665 C 
HETATM   11  N           0      12.419 -22.202   3.695  0.00  0.00    -0.235 N 
HETATM   12  N           0      10.950 -20.415   3.396  0.00  0.00    -0.235 N 
HETATM   13  H           0      12.732 -21.825   4.577  0.00  0.00     0.174 HD
HETATM   14  H           0      12.933 -22.985   3.322  0.00  0.00     0.174 HD
HETATM   15  H           0      10.936 -20.222   4.385  0.00  0.00     0.174 HD
HETATM   16  H           0      10.209 -20.031   2.804  0.00  0.00     0.174 HD
HETATM   17  H           0      10.535 -21.335   1.233  0.00  0.00     0.177 HD
ENDBRANCH   8   9
ENDBRANCH   7   8
ENDBRANCH   6   7
ENDBRANCH   5   6
BRANCH   5  18
HETATM   18  C           0      12.204 -21.341  -3.843  0.00  0.00     0.243 C 
HETATM   19  N           0      12.795 -22.368  -4.511  0.00  0.00    -0.337 N 
HETATM   20  C           0      12.501 -22.563  -5.941  0.00  0.00     0.179 C 
HETATM   21  C           0      14.038 -23.078  -4.138  0.00  0.00     0.127 C 
HETATM   22  C           0      13.777 -23.235  -6.521  0.00  0.00     0.037 C 
HETATM   23  C           0      14.847 -23.026  -5.438  0.00  0.00     0.022 C 
HETATM   24  O           0      11.450 -20.541  -4.405  0.00  0.00    -0.271 OA
BRANCH  20  25
HETATM   25  C           0      11.260 -23.423  -6.236  0.00  0.00     0.241 C 
HETATM   26  N           0      10.420 -23.700  -5.206  0.00  0.00    -0.344 N 
HETATM   27  H           0      10.619 -23.332  -4.279  0.00  0.00     0.163 HD
HETATM   28  O           0      11.082 -23.837  -7.384  0.00  0.00    -0.271 OA
BRANCH  26  29
HETATM   29  C           0       9.327 -24.652  -5.341  0.00  0.00     0.200 C 
BRANCH  29  30
HETATM   30  C           0       7.908 -24.070  -5.186  0.00  0.00     0.242 C 
HETATM   31  N           0       6.869 -24.911  -5.285  0.00  0.00    -0.354 N 
HETATM   32  H           0       6.979 -25.915  -5.406  0.00  0.00     0.162 HD
HETATM   33  O           0       7.783 -22.852  -4.982  0.00  0.00    -0.271 OA
BRANCH  31  34
HETATM   34  C           0       5.488 -24.500  -5.110  0.00  0.00     0.203 C 
BRANCH  34  35
HETATM   35  C           0       4.764 -25.445  -4.108  0.00  0.00     0.307 C 
HETATM   36  O           0       5.447 -25.845  -3.126  0.00  0.00    -0.186 OA
HETATM   37  O           0       3.570 -25.706  -4.389  0.00  0.00    -0.186 OA
ENDBRANCH  34  35
ENDBRANCH  31  34
ENDBRANCH  29  30
BRANCH  29  38
HETATM   38  C           0       9.502 -25.839  -4.370  0.00  0.00     0.199 C 
BRANCH  38  39
HETATM   39  O           0      10.859 -26.194  -4.178  0.00  0.00    -0.398 OA
HETATM   40  H           0      11.419 -25.711  -4.810  0.00  0.00     0.209 HD
ENDBRANCH  38  39
ENDBRANCH  29  38
ENDBRANCH  26  29
ENDBRANCH  20  25
ENDBRANCH   5  18
ENDBRANCH   3   5
BRANCH   1  41
HETATM   41  C           0      11.649 -17.903  -0.487  0.00  0.00     0.185 C 
BRANCH  41  42
HETATM   42  C           0      10.909 -16.857  -1.343  0.00  0.00     0.137 C 
BRANCH  42  43
HETATM   43  C           0       9.442 -16.645  -0.970  0.00  0.00     0.217 C 
HETATM   44  N           0       8.573 -16.936  -1.962  0.00  0.00    -0.370 N 
HETATM   45  H           0       7.600 -16.715  -1.805  0.00  0.00     0.159 HD
HETATM   46  H           0       8.878 -17.207  -2.905  0.00  0.00     0.159 HD
HETATM   47  O           0       9.105 -16.209   0.134  0.00  0.00    -0.274 OA
ENDBRANCH  42  43
ENDBRANCH  41  42
BRANCH  41  48
HETATM   48  N           0      12.549 -17.177   0.401  0.00  0.00    -0.346 N 
HETATM   49  H           0      13.369 -16.741  -0.000  0.00  0.00     0.163 HD
HETATM   50  C           0      12.404 -17.134   1.742  0.00  0.00     0.241 C 
HETATM   51  O           0      11.503 -17.729   2.346  0.00  0.00    -0.271 OA
BRANCH  50  52
HETATM   52  C           0      13.414 -16.265   2.515  0.00  0.00     0.177 C 
BRANCH  52  53
HETATM   53  N           0      12.938 -14.900   2.712  0.00  0.00    -0.346 N 
HETATM   54  H           0      11.945 -14.741   2.831  0.00  0.00     0.163 HD
HETATM   55  C           0      13.795 -13.855   2.865  0.00  0.00     0.236 C 
HETATM   56  O           0      15.017 -13.983   2.850  0.00  0.00    -0.272 OA
BRANCH  55  57
HETATM   57  C           0      13.161 -12.475   3.090  0.00  0.00     0.225 C 
BRANCH  57  58
HETATM   58  N           0      14.114 -11.367   3.077  0.00  0.00    -0.351 N 
HETATM   59  H           0      14.669 -11.226   3.909  0.00  0.00     0.163 HD
HETATM   60  C           0      14.430 -10.774   1.901  0.00  0.00     0.248 C 
HETATM   61  O           0      13.863 -11.087   0.849  0.00  0.00    -0.271 OA
BRANCH  60  62
HETATM   62  C           0      15.486  -9.665   1.847  0.00  0.00     0.275 C 
BRANCH  62  63
HETATM   63  N           0      15.018  -8.365   2.479  0.00  0.00    -0.066 N 
HETATM   64  H           0      15.780  -7.689   2.600  0.00  0.00     0.275 HD
HETATM   65  H           0      14.263  -7.903   1.963  0.00  0.00     0.275 HD
HETATM   66  H           0      14.644  -8.556   3.415  0.00  0.00     0.275 HD
ENDBRANCH  62  63
BRANCH  62  67
HETATM   67  C           0      16.851 -10.045   2.445  0.00  0.00     0.053 C 
BRANCH  67  68
HETATM   68  C           0      17.911 -10.433   1.407  0.00  0.00     0.115 C 
BRANCH  68  69
HETATM   69  C           0      17.904 -11.896   0.921  0.00  0.00     0.172 C 
HETATM   70  O           0      18.717 -12.711   1.431  0.00  0.00    -0.648 OA
HETATM   71  O           0      17.067 -12.172   0.001  0.00  0.00    -0.648 OA
ENDBRANCH  68  69
ENDBRANCH  67  68
ENDBRANCH  62  67
ENDBRANCH  60  62
ENDBRANCH  57  58
ENDBRANCH  55  57
ENDBRANCH  52  53
BRANCH  52  72
HETATM   72  C           0      13.761 -16.881   3.890  0.00  0.00     0.038 C 
BRANCH  72  73
HETATM   73  C           0      15.036 -17.743   3.968  0.00  0.00    -0.020 C 
HETATM   74  C           0      14.730 -19.248   3.975  0.00  0.00     0.009 C 
HETATM   75  C           0      15.963 -17.379   2.797  0.00  0.00     0.009 C 
ENDBRANCH  72  73
ENDBRANCH  52  72
ENDBRANCH  50  52
ENDBRANCH  41  48
ENDBRANCH   1  41
TORSDOF 28
ENDMDL
MODEL 6
REMARK VINA RESULT:      -5.1      4.400     10.039
REMARK  28 active torsions:
REMARK  status: ('A' for Active; 'I' for Inactive)
REMARK       I    between atoms: C_1  and  N_3 
REMARK    1  A    between atoms: C_1  and  C_41 
REMARK    2  A    between atoms: N_3  and  C_5 
REMARK    3  A    between atoms: C_5  and  C_6 
REMARK    4  A    between atoms: C_5  and  C_18 
REMARK       I    between atoms: C_18  and  N_19 
REMARK    5  A    between atoms: C_20  and  C_25 
REMARK       I    between atoms: C_25  and  N_26 
REMARK    6  A    between atoms: N_26  and  C_29 
REMARK    7  A    between atoms: C_29  and  C_30 
REMARK    8  A    between atoms: C_29  and  C_38 
REMARK       I    between atoms: C_30  and  N_31 
REMARK    9  A    between atoms: N_31  and  C_34 
REMARK   10  A    between atoms: C_34  and  C_35 
REMARK   11  A    between atoms: C_38  and  O_39 
REMARK   12  A    between atoms: C_6  and  C_7 
REMARK   13  A    between atoms: C_7  and  C_8 
REMARK   14  A    between atoms: C_8  and  N_9 
REMARK       I    between atoms: N_9  and  C_10 
REMARK       I    between atoms: C_10  and  N_12 
REMARK   15  A    between atoms: C_41  and  C_42 
REMARK   16  A    between atoms: C_41  and  N_48 
REMARK       I    between atoms: N_48  and  C_50 
REMARK   17  A    between atoms: C_50  and  C_52 
REMARK   18  A    between atoms: C_52  and  N_53 
REMARK   19  A    between atoms: C_52  and  C_72 
REMARK       I    between atoms: N_53  and  C_55 
REMARK   20  A    between atoms: C_55  and  C_57 
REMARK   21  A    between atoms: C_57  and  N_58 
REMARK       I    between atoms: N_58  and  C_60 
REMARK   22  A    between atoms: C_60  and  C_62 
REMARK   23  A    between atoms: C_62  and  N_63 
REMARK   24  A    between atoms: C_62  and  C_67 
REMARK   25  A    between atoms: C_67  and  C_68 
REMARK   26  A    between atoms: C_68  and  C_69 
REMARK   27  A    between atoms: C_72  and  C_73 
REMARK   28  A    between atoms: C_42  and  C_43 
REMARK       I    between atoms: C_43  and  N_44 
ROOT
HETATM    1  C           0      12.311 -18.861  -0.833  0.00  0.00     0.241 C 
HETATM    2  O           0      13.506 -19.039  -0.571  0.00  0.00    -0.271 OA
HETATM    3  N           0      11.637 -19.675  -1.679  0.00  0.00    -0.346 N 
HETATM    4  H           0      10.668 -19.475  -1.896  0.00  0.00     0.163 HD
ENDROOT
BRANCH   3   5
HETATM    5  C           0      12.254 -20.909  -2.162  0.00  0.00     0.176 C 
BRANCH   5   6
HETATM    6  C           0      11.666 -22.148  -1.468  0.00  0.00     0.036 C 
BRANCH   6   7
HETATM    7  C           0      12.610 -22.667  -0.378  0.00  0.00     0.023 C 
BRANCH   7   8
HETATM    8  C           0      12.141 -22.377   1.048  0.00  0.00     0.138 C 
BRANCH   8   9
HETATM    9  N           0      12.788 -21.141   1.479  0.00  0.00    -0.227 N 
HETATM   10  C           0      13.782 -21.025   2.355  0.00  0.00     0.665 C 
HETATM   11  N           0      14.275 -22.087   3.006  0.00  0.00    -0.235 N 
HETATM   12  N           0      14.292 -19.796   2.561  0.00  0.00    -0.235 N 
HETATM   13  H           0      15.118 -22.007   3.556  0.00  0.00     0.174 HD
HETATM   14  H           0      13.950 -23.017   2.797  0.00  0.00     0.174 HD
HETATM   15  H           0      14.863 -19.613   3.371  0.00  0.00     0.174 HD
HETATM   16  H           0      13.777 -19.025   2.130  0.00  0.00     0.174 HD
HETATM   17  H           0      12.454 -20.237   1.103  0.00  0.00     0.177 HD
ENDBRANCH   8   9
ENDBRANCH   7   8
ENDBRANCH   6   7
ENDBRANCH   5   6
BRANCH   5  18
HETATM   18  C           0      12.328 -21.054  -3.698  0.00  0.00     0.243 C 
HETATM   19  N           0      13.060 -22.053  -4.262  0.00  0.00    -0.337 N 
HETATM   20  C           0      13.014 -22.245  -5.722  0.00  0.00     0.179 C 
HETATM   21  C           0      14.249 -22.721  -3.692  0.00  0.00     0.127 C 
HETATM   22  C           0      14.392 -22.864  -6.085  0.00  0.00     0.037 C 
HETATM   23  C           0      15.260 -22.627  -4.840  0.00  0.00     0.022 C 
HETATM   24  O           0      11.648 -20.277  -4.374  0.00  0.00    -0.271 OA
BRANCH  20  25
HETATM   25  C           0      11.871 -23.146  -6.222  0.00  0.00     0.241 C 
HETATM   26  N           0      10.717 -22.550  -6.614  0.00  0.00    -0.344 N 
HETATM   27  H           0      10.635 -21.537  -6.580  0.00  0.00     0.163 HD
HETATM   28  O           0      12.039 -24.368  -6.233  0.00  0.00    -0.271 OA
BRANCH  26  29
HETATM   29  C           0       9.521 -23.319  -6.924  0.00  0.00     0.200 C 
BRANCH  29  30
HETATM   30  C           0       8.646 -23.714  -5.719  0.00  0.00     0.242 C 
HETATM   31  N           0       7.415 -24.186  -5.962  0.00  0.00    -0.354 N 
HETATM   32  H           0       7.057 -24.340  -6.902  0.00  0.00     0.162 HD
HETATM   33  O           0       9.109 -23.576  -4.576  0.00  0.00    -0.271 OA
BRANCH  31  34
HETATM   34  C           0       6.510 -24.637  -4.921  0.00  0.00     0.203 C 
BRANCH  34  35
HETATM   35  C           0       5.115 -24.969  -5.522  0.00  0.00     0.307 C 
HETATM   36  O           0       4.319 -24.000  -5.654  0.00  0.00    -0.186 OA
HETATM   37  O           0       4.933 -26.176  -5.814  0.00  0.00    -0.186 OA
ENDBRANCH  34  35
ENDBRANCH  31  34
ENDBRANCH  29  30
BRANCH  29  38
HETATM   38  C           0       9.871 -24.583  -7.738  0.00  0.00     0.199 C 
BRANCH  38  39
HETATM   39  O           0       9.640 -25.780  -7.019  0.00  0.00    -0.398 OA
HETATM   40  H           0       8.830 -26.209  -7.344  0.00  0.00     0.209 HD
ENDBRANCH  38  39
ENDBRANCH  29  38
ENDBRANCH  26  29
ENDBRANCH  20  25
ENDBRANCH   5  18
ENDBRANCH   3   5
BRANCH   1  41
HETATM   41  C           0      11.509 -17.722  -0.168  0.00  0.00     0.185 C 
BRANCH  41  42
HETATM   42  C           0      10.852 -16.784  -1.199  0.00  0.00     0.137 C 
BRANCH  42  43
HETATM   43  C           0       9.339 -16.625  -1.049  0.00  0.00     0.217 C 
HETATM   44  N           0       8.636 -16.977  -2.147  0.00  0.00    -0.370 N 
HETATM   45  H           0       7.643 -16.794  -2.139  0.00  0.00     0.159 HD
HETATM   46  H           0       9.085 -17.258  -3.027  0.00  0.00     0.159 HD
HETATM   47  O           0       8.828 -16.176  -0.019  0.00  0.00    -0.274 OA
ENDBRANCH  42  43
ENDBRANCH  41  42
BRANCH  41  48
HETATM   48  N           0      12.341 -16.898   0.700  0.00  0.00    -0.346 N 
HETATM   49  H           0      12.965 -16.228   0.269  0.00  0.00     0.163 HD
HETATM   50  C           0      12.397 -17.041   2.040  0.00  0.00     0.241 C 
HETATM   51  O           0      11.763 -17.906   2.657  0.00  0.00    -0.271 OA
BRANCH  50  52
HETATM   52  C           0      13.284 -16.039   2.803  0.00  0.00     0.177 C 
BRANCH  52  53
HETATM   53  N           0      14.423 -15.589   2.010  0.00  0.00    -0.346 N 
HETATM   54  H           0      14.269 -15.304   1.052  0.00  0.00     0.163 HD
HETATM   55  C           0      15.658 -15.424   2.556  0.00  0.00     0.236 C 
HETATM   56  O           0      15.901 -15.638   3.741  0.00  0.00    -0.272 OA
BRANCH  55  57
HETATM   57  C           0      16.762 -14.922   1.615  0.00  0.00     0.225 C 
BRANCH  57  58
HETATM   58  N           0      16.655 -13.507   1.266  0.00  0.00    -0.351 N 
HETATM   59  H           0      16.005 -13.260   0.534  0.00  0.00     0.163 HD
HETATM   60  C           0      17.180 -12.575   2.096  0.00  0.00     0.248 C 
HETATM   61  O           0      17.828 -12.895   3.098  0.00  0.00    -0.271 OA
BRANCH  60  62
HETATM   62  C           0      17.011 -11.081   1.796  0.00  0.00     0.275 C 
BRANCH  62  63
HETATM   63  N           0      18.121 -10.226   2.385  0.00  0.00    -0.066 N 
HETATM   64  H           0      17.879  -9.229   2.409  0.00  0.00     0.275 HD
HETATM   65  H           0      18.403 -10.507   3.329  0.00  0.00     0.275 HD
HETATM   66  H           0      18.961 -10.309   1.802  0.00  0.00     0.275 HD
ENDBRANCH  62  63
BRANCH  62  67
HETATM   67  C           0      16.856 -10.736   0.305  0.00  0.00     0.053 C 
BRANCH  67  68
HETATM   68  C           0      18.180 -10.516  -0.435  0.00  0.00     0.115 C 
BRANCH  68  69
HETATM   69  C           0      18.710 -11.694  -1.276  0.00  0.00     0.172 C 
HETATM   70  O           0      18.064 -12.775  -1.284  0.00  0.00    -0.648 OA
HETATM   71  O           0      19.801 -11.486  -1.899  0.00  0.00    -0.648 OA
ENDBRANCH  68  69
ENDBRANCH  67  68
ENDBRANCH  62  67
ENDBRANCH  60  62
ENDBRANCH  57  58
ENDBRANCH  55  57
ENDBRANCH  52  53
BRANCH  52  72
HETATM   72  C           0      12.478 -14.806   3.273  0.00  0.00     0.038 C 
BRANCH  72  73
HETATM   73  C           0      12.166 -13.731   2.214  0.00  0.00    -0.020 C 
HETATM   74  C           0      10.686 -13.719   1.806  0.00  0.00     0.009 C 
HETATM   75  C           0      12.597 -12.356   2.749  0.00  0.00     0.009 C 
ENDBRANCH  72  73
ENDBRANCH  52  72
ENDBRANCH  50  52
ENDBRANCH  41  48
ENDBRANCH   1  41
TORSDOF 28
ENDMDL
MODEL 7
REMARK VINA RESULT:      -5.1      2.356      5.242
REMARK  28 active torsions:
REMARK  status: ('A' for Active; 'I' for Inactive)
REMARK       I    between atoms: C_1  and  N_3 
REMARK    1  A    between atoms: C_1  and  C_41 
REMARK    2  A    between atoms: N_3  and  C_5 
REMARK    3  A    between atoms: C_5  and  C_6 
REMARK    4  A    between atoms: C_5  and  C_18 
REMARK       I    between atoms: C_18  and  N_19 
REMARK    5  A    between atoms: C_20  and  C_25 
REMARK       I    between atoms: C_25  and  N_26 
REMARK    6  A    between atoms: N_26  and  C_29 
REMARK    7  A    between atoms: C_29  and  C_30 
REMARK    8  A    between atoms: C_29  and  C_38 
REMARK       I    between atoms: C_30  and  N_31 
REMARK    9  A    between atoms: N_31  and  C_34 
REMARK   10  A    between atoms: C_34  and  C_35 
REMARK   11  A    between atoms: C_38  and  O_39 
REMARK   12  A    between atoms: C_6  and  C_7 
REMARK   13  A    between atoms: C_7  and  C_8 
REMARK   14  A    between atoms: C_8  and  N_9 
REMARK       I    between atoms: N_9  and  C_10 
REMARK       I    between atoms: C_10  and  N_12 
REMARK   15  A    between atoms: C_41  and  C_42 
REMARK   16  A    between atoms: C_41  and  N_48 
REMARK       I    between atoms: N_48  and  C_50 
REMARK   17  A    between atoms: C_50  and  C_52 
REMARK   18  A    between atoms: C_52  and  N_53 
REMARK   19  A    between atoms: C_52  and  C_72 
REMARK       I    between atoms: N_53  and  C_55 
REMARK   20  A    between atoms: C_55  and  C_57 
REMARK   21  A    between atoms: C_57  and  N_58 
REMARK       I    between atoms: N_58  and  C_60 
REMARK   22  A    between atoms: C_60  and  C_62 
REMARK   23  A    between atoms: C_62  and  N_63 
REMARK   24  A    between atoms: C_62  and  C_67 
REMARK   25  A    between atoms: C_67  and  C_68 
REMARK   26  A    between atoms: C_68  and  C_69 
REMARK   27  A    between atoms: C_72  and  C_73 
REMARK   28  A    between atoms: C_42  and  C_43 
REMARK       I    between atoms: C_43  and  N_44 
ROOT
HETATM    1  C           0      11.000 -23.434  -5.423  0.00  0.00     0.241 C 
HETATM    2  O           0      11.060 -23.262  -6.646  0.00  0.00    -0.271 OA
HETATM    3  N           0      10.055 -24.223  -4.859  0.00  0.00    -0.346 N 
HETATM    4  H           0      10.017 -24.310  -3.851  0.00  0.00     0.163 HD
ENDROOT
BRANCH   3   5
HETATM    5  C           0       9.191 -25.051  -5.698  0.00  0.00     0.176 C 
BRANCH   5   6
HETATM    6  C           0       9.531 -26.545  -5.563  0.00  0.00     0.036 C 
BRANCH   6   7
HETATM    7  C           0       9.379 -27.014  -4.112  0.00  0.00     0.023 C 
BRANCH   7   8
HETATM    8  C           0       8.363 -28.141  -3.921  0.00  0.00     0.138 C 
BRANCH   8   9
HETATM    9  N           0       7.319 -27.642  -3.030  0.00  0.00    -0.227 N 
HETATM   10  C           0       6.782 -28.282  -1.996  0.00  0.00     0.665 C 
HETATM   11  N           0       7.126 -29.541  -1.689  0.00  0.00    -0.235 N 
HETATM   12  N           0       5.880 -27.617  -1.251  0.00  0.00    -0.235 N 
HETATM   13  H           0       6.820 -29.961  -0.824  0.00  0.00     0.174 HD
HETATM   14  H           0       7.857 -30.014  -2.196  0.00  0.00     0.174 HD
HETATM   15  H           0       5.273 -28.118  -0.620  0.00  0.00     0.174 HD
HETATM   16  H           0       5.574 -26.716  -1.625  0.00  0.00     0.174 HD
HETATM   17  H           0       6.913 -26.706  -3.200  0.00  0.00     0.177 HD
ENDBRANCH   8   9
ENDBRANCH   7   8
ENDBRANCH   6   7
ENDBRANCH   5   6
BRANCH   5  18
HETATM   18  C           0       7.678 -24.763  -5.577  0.00  0.00     0.243 C 
HETATM   19  N           0       6.770 -25.580  -6.176  0.00  0.00    -0.337 N 
HETATM   20  C           0       5.333 -25.354  -5.943  0.00  0.00     0.179 C 
HETATM   21  C           0       6.973 -26.407  -7.385  0.00  0.00     0.127 C 
HETATM   22  C           0       4.635 -25.877  -7.229  0.00  0.00     0.037 C 
HETATM   23  C           0       5.772 -26.017  -8.254  0.00  0.00     0.022 C 
HETATM   24  O           0       7.338 -23.813  -4.866  0.00  0.00    -0.271 OA
BRANCH  20  25
HETATM   25  C           0       4.760 -26.054  -4.698  0.00  0.00     0.241 C 
HETATM   26  N           0       3.952 -27.128  -4.889  0.00  0.00    -0.344 N 
HETATM   27  H           0       3.753 -27.448  -5.834  0.00  0.00     0.163 HD
HETATM   28  O           0       5.042 -25.610  -3.583  0.00  0.00    -0.271 OA
BRANCH  26  29
HETATM   29  C           0       3.216 -27.740  -3.793  0.00  0.00     0.200 C 
BRANCH  29  30
HETATM   30  C           0       3.524 -29.227  -3.526  0.00  0.00     0.242 C 
HETATM   31  N           0       3.310 -29.702  -2.291  0.00  0.00    -0.354 N 
HETATM   32  H           0       2.907 -29.140  -1.544  0.00  0.00     0.162 HD
HETATM   33  O           0       3.962 -29.920  -4.456  0.00  0.00    -0.271 OA
BRANCH  31  34
HETATM   34  C           0       3.513 -31.090  -1.921  0.00  0.00     0.203 C 
BRANCH  34  35
HETATM   35  C           0       3.931 -31.198  -0.427  0.00  0.00     0.307 C 
HETATM   36  O           0       3.357 -32.092   0.251  0.00  0.00    -0.186 OA
HETATM   37  O           0       4.804 -30.375  -0.058  0.00  0.00    -0.186 OA
ENDBRANCH  34  35
ENDBRANCH  31  34
ENDBRANCH  29  30
BRANCH  29  38
HETATM   38  C           0       1.694 -27.558  -3.976  0.00  0.00     0.199 C 
BRANCH  38  39
HETATM   39  O           0       0.988 -28.784  -3.947  0.00  0.00    -0.398 OA
HETATM   40  H           0       0.646 -28.947  -3.052  0.00  0.00     0.209 HD
ENDBRANCH  38  39
ENDBRANCH  29  38
ENDBRANCH  26  29
ENDBRANCH  20  25
ENDBRANCH   5  18
ENDBRANCH   3   5
BRANCH   1  41
HETATM   41  C           0      12.035 -22.793  -4.474  0.00  0.00     0.185 C 
BRANCH  41  42
HETATM   42  C           0      11.388 -22.205  -3.206  0.00  0.00     0.137 C 
BRANCH  42  43
HETATM   43  C           0      12.050 -22.625  -1.894  0.00  0.00     0.217 C 
HETATM   44  N           0      13.009 -23.565  -2.036  0.00  0.00    -0.370 N 
HETATM   45  H           0      13.406 -23.953  -1.192  0.00  0.00     0.159 HD
HETATM   46  H           0      13.223 -24.008  -2.938  0.00  0.00     0.159 HD
HETATM   47  O           0      11.698 -22.161  -0.806  0.00  0.00    -0.274 OA
ENDBRANCH  42  43
ENDBRANCH  41  42
BRANCH  41  48
HETATM   48  N           0      12.779 -21.718  -5.119  0.00  0.00    -0.346 N 
HETATM   49  H           0      12.286 -21.114  -5.763  0.00  0.00     0.163 HD
HETATM   50  C           0      14.109 -21.540  -4.980  0.00  0.00     0.241 C 
HETATM   51  O           0      14.828 -22.292  -4.309  0.00  0.00    -0.271 OA
BRANCH  50  52
HETATM   52  C           0      14.717 -20.313  -5.685  0.00  0.00     0.177 C 
BRANCH  52  53
HETATM   53  N           0      14.210 -19.054  -5.146  0.00  0.00    -0.346 N 
HETATM   54  H           0      14.737 -18.587  -4.420  0.00  0.00     0.163 HD
HETATM   55  C           0      13.123 -18.432  -5.677  0.00  0.00     0.236 C 
HETATM   56  O           0      12.497 -18.878  -6.636  0.00  0.00    -0.272 OA
BRANCH  55  57
HETATM   57  C           0      12.711 -17.102  -5.030  0.00  0.00     0.225 C 
BRANCH  57  58
HETATM   58  N           0      11.829 -17.245  -3.874  0.00  0.00    -0.351 N 
HETATM   59  H           0      10.854 -17.434  -4.058  0.00  0.00     0.163 HD
HETATM   60  C           0      12.366 -17.411  -2.643  0.00  0.00     0.248 C 
HETATM   61  O           0      13.587 -17.355  -2.459  0.00  0.00    -0.271 OA
BRANCH  60  62
HETATM   62  C           0      11.466 -17.644  -1.424  0.00  0.00     0.275 C 
BRANCH  62  63
HETATM   63  N           0      11.554 -19.061  -0.881  0.00  0.00    -0.066 N 
HETATM   64  H           0      11.305 -19.117   0.113  0.00  0.00     0.275 HD
HETATM   65  H           0      10.977 -19.736  -1.392  0.00  0.00     0.275 HD
HETATM   66  H           0      12.519 -19.396  -0.960  0.00  0.00     0.275 HD
ENDBRANCH  62  63
BRANCH  62  67
HETATM   67  C           0      11.677 -16.653  -0.268  0.00  0.00     0.053 C 
BRANCH  67  68
HETATM   68  C           0      10.718 -16.846   0.914  0.00  0.00     0.115 C 
BRANCH  68  69
HETATM   69  C           0       9.287 -16.299   0.743  0.00  0.00     0.172 C 
HETATM   70  O           0       9.019 -15.604  -0.273  0.00  0.00    -0.648 OA
HETATM   71  O           0       8.469 -16.580   1.677  0.00  0.00    -0.648 OA
ENDBRANCH  68  69
ENDBRANCH  67  68
ENDBRANCH  62  67
ENDBRANCH  60  62
ENDBRANCH  57  58
ENDBRANCH  55  57
ENDBRANCH  52  53
BRANCH  52  72
HETATM   72  C           0      16.261 -20.311  -5.600  0.00  0.00     0.038 C 
BRANCH  72  73
HETATM   73  C           0      16.901 -19.394  -4.540  0.00  0.00    -0.020 C 
HETATM   74  C           0      17.676 -20.180  -3.472  0.00  0.00     0.009 C 
HETATM   75  C           0      17.815 -18.376  -5.240  0.00  0.00     0.009 C 
ENDBRANCH  72  73
ENDBRANCH  52  72
ENDBRANCH  50  52
ENDBRANCH  41  48
ENDBRANCH   1  41
TORSDOF 28
ENDMDL
MODEL 8
REMARK VINA RESULT:      -5.0     25.486     29.660
REMARK  28 active torsions:
REMARK  status: ('A' for Active; 'I' for Inactive)
REMARK       I    between atoms: C_1  and  N_3 
REMARK    1  A    between atoms: C_1  and  C_41 
REMARK    2  A    between atoms: N_3  and  C_5 
REMARK    3  A    between atoms: C_5  and  C_6 
REMARK    4  A    between atoms: C_5  and  C_18 
REMARK       I    between atoms: C_18  and  N_19 
REMARK    5  A    between atoms: C_20  and  C_25 
REMARK       I    between atoms: C_25  and  N_26 
REMARK    6  A    between atoms: N_26  and  C_29 
REMARK    7  A    between atoms: C_29  and  C_30 
REMARK    8  A    between atoms: C_29  and  C_38 
REMARK       I    between atoms: C_30  and  N_31 
REMARK    9  A    between atoms: N_31  and  C_34 
REMARK   10  A    between atoms: C_34  and  C_35 
REMARK   11  A    between atoms: C_38  and  O_39 
REMARK   12  A    between atoms: C_6  and  C_7 
REMARK   13  A    between atoms: C_7  and  C_8 
REMARK   14  A    between atoms: C_8  and  N_9 
REMARK       I    between atoms: N_9  and  C_10 
REMARK       I    between atoms: C_10  and  N_12 
REMARK   15  A    between atoms: C_41  and  C_42 
REMARK   16  A    between atoms: C_41  and  N_48 
REMARK       I    between atoms: N_48  and  C_50 
REMARK   17  A    between atoms: C_50  and  C_52 
REMARK   18  A    between atoms: C_52  and  N_53 
REMARK   19  A    between atoms: C_52  and  C_72 
REMARK       I    between atoms: N_53  and  C_55 
REMARK   20  A    between atoms: C_55  and  C_57 
REMARK   21  A    between atoms: C_57  and  N_58 
REMARK       I    between atoms: N_58  and  C_60 
REMARK   22  A    between atoms: C_60  and  C_62 
REMARK   23  A    between atoms: C_62  and  N_63 
REMARK   24  A    between atoms: C_62  and  C_67 
REMARK   25  A    between atoms: C_67  and  C_68 
REMARK   26  A    between atoms: C_68  and  C_69 
REMARK   27  A    between atoms: C_72  and  C_73 
REMARK   28  A    between atoms: C_42  and  C_43 
REMARK       I    between atoms: C_43  and  N_44 
ROOT
HETATM    1  C           0     -10.864  -1.616  -5.463  0.00  0.00     0.241 C 
HETATM    2  O           0      -9.827  -1.282  -6.048  0.00  0.00    -0.271 OA
HETATM    3  N           0     -10.960  -2.790  -4.797  0.00  0.00    -0.346 N 
HETATM    4  H           0     -11.838  -3.044  -4.361  0.00  0.00     0.163 HD
ENDROOT
BRANCH   3   5
HETATM    5  C           0      -9.773  -3.617  -4.586  0.00  0.00     0.176 C 
BRANCH   5   6
HETATM    6  C           0      -9.851  -4.394  -3.262  0.00  0.00     0.036 C 
BRANCH   6   7
HETATM    7  C           0     -11.308  -4.634  -2.850  0.00  0.00     0.023 C 
BRANCH   7   8
HETATM    8  C           0     -11.552  -4.566  -1.343  0.00  0.00     0.138 C 
BRANCH   8   9
HETATM    9  N           0     -11.395  -3.171  -0.937  0.00  0.00    -0.227 N 
HETATM   10  C           0     -10.568  -2.700  -0.008  0.00  0.00     0.665 C 
HETATM   11  N           0      -9.796  -3.513   0.726  0.00  0.00    -0.235 N 
HETATM   12  N           0     -10.520  -1.367   0.165  0.00  0.00    -0.235 N 
HETATM   13  H           0      -9.074  -3.136   1.321  0.00  0.00     0.174 HD
HETATM   14  H           0      -9.771  -4.504   0.545  0.00  0.00     0.174 HD
HETATM   15  H           0     -10.107  -0.978   0.999  0.00  0.00     0.174 HD
HETATM   16  H           0     -11.231  -0.828  -0.335  0.00  0.00     0.174 HD
HETATM   17  H           0     -11.986  -2.446  -1.378  0.00  0.00     0.177 HD
ENDBRANCH   8   9
ENDBRANCH   7   8
ENDBRANCH   6   7
ENDBRANCH   5   6
BRANCH   5  18
HETATM   18  C           0      -9.362  -4.502  -5.784  0.00  0.00     0.243 C 
HETATM   19  N           0      -8.088  -4.467  -6.262  0.00  0.00    -0.337 N 
HETATM   20  C           0      -7.690  -5.409  -7.322  0.00  0.00     0.179 C 
HETATM   21  C           0      -7.140  -3.335  -6.194  0.00  0.00     0.127 C 
HETATM   22  C           0      -6.565  -4.675  -8.103  0.00  0.00     0.037 C 
HETATM   23  C           0      -6.674  -3.211  -7.649  0.00  0.00     0.022 C 
HETATM   24  O           0     -10.210  -5.278  -6.232  0.00  0.00    -0.271 OA
BRANCH  20  25
HETATM   25  C           0      -7.193  -6.776  -6.821  0.00  0.00     0.241 C 
HETATM   26  N           0      -8.077  -7.806  -6.803  0.00  0.00    -0.344 N 
HETATM   27  H           0      -9.030  -7.658  -7.125  0.00  0.00     0.163 HD
HETATM   28  O           0      -6.023  -6.882  -6.443  0.00  0.00    -0.271 OA
BRANCH  26  29
HETATM   29  C           0      -7.759  -9.081  -6.177  0.00  0.00     0.200 C 
BRANCH  29  30
HETATM   30  C           0      -6.971 -10.078  -7.049  0.00  0.00     0.242 C 
HETATM   31  N           0      -6.325 -11.078  -6.434  0.00  0.00    -0.354 N 
HETATM   32  H           0      -6.374 -11.234  -5.430  0.00  0.00     0.162 HD
HETATM   33  O           0      -6.962  -9.915  -8.279  0.00  0.00    -0.271 OA
BRANCH  31  34
HETATM   34  C           0      -5.589 -12.110  -7.140  0.00  0.00     0.203 C 
BRANCH  34  35
HETATM   35  C           0      -6.230 -13.504  -6.886  0.00  0.00     0.307 C 
HETATM   36  O           0      -7.479 -13.581  -7.042  0.00  0.00    -0.186 OA
HETATM   37  O           0      -5.427 -14.408  -6.551  0.00  0.00    -0.186 OA
ENDBRANCH  34  35
ENDBRANCH  31  34
ENDBRANCH  29  30
BRANCH  29  38
HETATM   38  C           0      -9.032  -9.767  -5.638  0.00  0.00     0.199 C 
BRANCH  38  39
HETATM   39  O           0      -8.770 -10.635  -4.551  0.00  0.00    -0.398 OA
HETATM   40  H           0      -7.992 -10.321  -4.059  0.00  0.00     0.209 HD
ENDBRANCH  38  39
ENDBRANCH  29  38
ENDBRANCH  26  29
ENDBRANCH  20  25
ENDBRANCH   5  18
ENDBRANCH   3   5
BRANCH   1  41
HETATM   41  C           0     -12.094  -0.684  -5.422  0.00  0.00     0.185 C 
BRANCH  41  42
HETATM   42  C           0     -12.455  -0.123  -6.810  0.00  0.00     0.137 C 
BRANCH  42  43
HETATM   43  C           0     -11.868   1.254  -7.119  0.00  0.00     0.217 C 
HETATM   44  N           0     -10.649   1.217  -7.698  0.00  0.00    -0.370 N 
HETATM   45  H           0     -10.170   2.097  -7.828  0.00  0.00     0.159 HD
HETATM   46  H           0     -10.134   0.341  -7.851  0.00  0.00     0.159 HD
HETATM   47  O           0     -12.457   2.297  -6.822  0.00  0.00    -0.274 OA
ENDBRANCH  42  43
ENDBRANCH  41  42
BRANCH  41  48
HETATM   48  N           0     -11.892   0.454  -4.534  0.00  0.00    -0.346 N 
HETATM   49  H           0     -11.633   1.341  -4.945  0.00  0.00     0.163 HD
HETATM   50  C           0     -11.937   0.371  -3.188  0.00  0.00     0.241 C 
HETATM   51  O           0     -12.130  -0.689  -2.580  0.00  0.00    -0.271 OA
BRANCH  50  52
HETATM   52  C           0     -11.763   1.689  -2.411  0.00  0.00     0.177 C 
BRANCH  52  53
HETATM   53  N           0     -11.702   2.851  -3.293  0.00  0.00    -0.346 N 
HETATM   54  H           0     -12.567   3.266  -3.614  0.00  0.00     0.163 HD
HETATM   55  C           0     -10.526   3.465  -3.592  0.00  0.00     0.236 C 
HETATM   56  O           0      -9.443   3.092  -3.147  0.00  0.00    -0.272 OA
BRANCH  55  57
HETATM   57  C           0     -10.607   4.691  -4.512  0.00  0.00     0.225 C 
BRANCH  57  58
HETATM   58  N           0      -9.392   4.945  -5.283  0.00  0.00    -0.351 N 
HETATM   59  H           0      -9.325   4.515  -6.194  0.00  0.00     0.163 HD
HETATM   60  C           0      -8.560   5.944  -4.904  0.00  0.00     0.248 C 
HETATM   61  O           0      -8.756   6.589  -3.868  0.00  0.00    -0.271 OA
BRANCH  60  62
HETATM   62  C           0      -7.321   6.285  -5.740  0.00  0.00     0.275 C 
BRANCH  62  63
HETATM   63  N           0      -7.462   5.892  -7.201  0.00  0.00    -0.066 N 
HETATM   64  H           0      -6.629   6.123  -7.753  0.00  0.00     0.275 HD
HETATM   65  H           0      -7.672   4.899  -7.344  0.00  0.00     0.275 HD
HETATM   66  H           0      -8.243   6.409  -7.620  0.00  0.00     0.275 HD
ENDBRANCH  62  63
BRANCH  62  67
HETATM   67  C           0      -6.875   7.755  -5.662  0.00  0.00     0.053 C 
BRANCH  67  68
HETATM   68  C           0      -7.872   8.752  -6.264  0.00  0.00     0.115 C 
BRANCH  68  69
HETATM   69  C           0      -7.505   9.360  -7.633  0.00  0.00     0.172 C 
HETATM   70  O           0      -6.938  10.484  -7.666  0.00  0.00    -0.648 OA
HETATM   71  O           0      -7.829   8.670  -8.653  0.00  0.00    -0.648 OA
ENDBRANCH  68  69
ENDBRANCH  67  68
ENDBRANCH  62  67
ENDBRANCH  60  62
ENDBRANCH  57  58
ENDBRANCH  55  57
ENDBRANCH  52  53
BRANCH  52  72
HETATM   72  C           0     -12.895   1.899  -1.379  0.00  0.00     0.038 C 
BRANCH  72  73
HETATM   73  C           0     -12.471   2.169   0.077  0.00  0.00    -0.020 C 
HETATM   74  C           0     -13.033   1.129   1.057  0.00  0.00     0.009 C 
HETATM   75  C           0     -10.937   2.222   0.155  0.00  0.00     0.009 C 
ENDBRANCH  72  73
ENDBRANCH  52  72
ENDBRANCH  50  52
ENDBRANCH  41  48
ENDBRANCH   1  41
TORSDOF 28
ENDMDL
MODEL 9
REMARK VINA RESULT:      -5.0      2.962      6.769
REMARK  28 active torsions:
REMARK  status: ('A' for Active; 'I' for Inactive)
REMARK       I    between atoms: C_1  and  N_3 
REMARK    1  A    between atoms: C_1  and  C_41 
REMARK    2  A    between atoms: N_3  and  C_5 
REMARK    3  A    between atoms: C_5  and  C_6 
REMARK    4  A    between atoms: C_5  and  C_18 
REMARK       I    between atoms: C_18  and  N_19 
REMARK    5  A    between atoms: C_20  and  C_25 
REMARK       I    between atoms: C_25  and  N_26 
REMARK    6  A    between atoms: N_26  and  C_29 
REMARK    7  A    between atoms: C_29  and  C_30 
REMARK    8  A    between atoms: C_29  and  C_38 
REMARK       I    between atoms: C_30  and  N_31 
REMARK    9  A    between atoms: N_31  and  C_34 
REMARK   10  A    between atoms: C_34  and  C_35 
REMARK   11  A    between atoms: C_38  and  O_39 
REMARK   12  A    between atoms: C_6  and  C_7 
REMARK   13  A    between atoms: C_7  and  C_8 
REMARK   14  A    between atoms: C_8  and  N_9 
REMARK       I    between atoms: N_9  and  C_10 
REMARK       I    between atoms: C_10  and  N_12 
REMARK   15  A    between atoms: C_41  and  C_42 
REMARK   16  A    between atoms: C_41  and  N_48 
REMARK       I    between atoms: N_48  and  C_50 
REMARK   17  A    between atoms: C_50  and  C_52 
REMARK   18  A    between atoms: C_52  and  N_53 
REMARK   19  A    between atoms: C_52  and  C_72 
REMARK       I    between atoms: N_53  and  C_55 
REMARK   20  A    between atoms: C_55  and  C_57 
REMARK   21  A    between atoms: C_57  and  N_58 
REMARK       I    between atoms: N_58  and  C_60 
REMARK   22  A    between atoms: C_60  and  C_62 
REMARK   23  A    between atoms: C_62  and  N_63 
REMARK   24  A    between atoms: C_62  and  C_67 
REMARK   25  A    between atoms: C_67  and  C_68 
REMARK   26  A    between atoms: C_68  and  C_69 
REMARK   27  A    between atoms: C_72  and  C_73 
REMARK   28  A    between atoms: C_42  and  C_43 
REMARK       I    between atoms: C_43  and  N_44 
ROOT
HETATM    1  C           0      11.676 -20.789  -5.138  0.00  0.00     0.241 C 
HETATM    2  O           0      12.039 -21.224  -6.237  0.00  0.00    -0.271 OA
HETATM    3  N           0      10.945 -21.540  -4.282  0.00  0.00    -0.346 N 
HETATM    4  H           0      10.636 -21.136  -3.406  0.00  0.00     0.163 HD
ENDROOT
BRANCH   3   5
HETATM    5  C           0      10.724 -22.960  -4.550  0.00  0.00     0.176 C 
BRANCH   5   6
HETATM    6  C           0      11.160 -23.836  -3.364  0.00  0.00     0.036 C 
BRANCH   6   7
HETATM    7  C           0      12.610 -24.306  -3.533  0.00  0.00     0.023 C 
BRANCH   7   8
HETATM    8  C           0      13.594 -23.662  -2.557  0.00  0.00     0.138 C 
BRANCH   8   9
HETATM    9  N           0      12.876 -23.415  -1.309  0.00  0.00    -0.227 N 
HETATM   10  C           0      13.326 -23.628  -0.076  0.00  0.00     0.665 C 
HETATM   11  N           0      14.528 -24.175   0.152  0.00  0.00    -0.235 N 
HETATM   12  N           0      12.532 -23.263   0.948  0.00  0.00    -0.235 N 
HETATM   13  H           0      14.913 -24.198   1.084  0.00  0.00     0.174 HD
HETATM   14  H           0      15.156 -24.376  -0.610  0.00  0.00     0.174 HD
HETATM   15  H           0      12.708 -23.616   1.877  0.00  0.00     0.174 HD
HETATM   16  H           0      11.583 -22.980   0.695  0.00  0.00     0.174 HD
HETATM   17  H           0      11.907 -23.057  -1.346  0.00  0.00     0.177 HD
ENDBRANCH   8   9
ENDBRANCH   7   8
ENDBRANCH   6   7
ENDBRANCH   5   6
BRANCH   5  18
HETATM   18  C           0       9.320 -23.322  -5.085  0.00  0.00     0.243 C 
HETATM   19  N           0       9.159 -24.359  -5.950  0.00  0.00    -0.337 N 
HETATM   20  C           0       7.798 -24.761  -6.348  0.00  0.00     0.179 C 
HETATM   21  C           0      10.153 -24.887  -6.909  0.00  0.00     0.127 C 
HETATM   22  C           0       7.963 -25.367  -7.770  0.00  0.00     0.037 C 
HETATM   23  C           0       9.361 -24.916  -8.220  0.00  0.00     0.022 C 
HETATM   24  O           0       8.363 -22.680  -4.644  0.00  0.00    -0.271 OA
BRANCH  20  25
HETATM   25  C           0       7.120 -25.773  -5.408  0.00  0.00     0.241 C 
HETATM   26  N           0       5.771 -25.901  -5.480  0.00  0.00    -0.344 N 
HETATM   27  H           0       5.246 -25.344  -6.149  0.00  0.00     0.163 HD
HETATM   28  O           0       7.819 -26.413  -4.619  0.00  0.00    -0.271 OA
BRANCH  26  29
HETATM   29  C           0       5.021 -26.689  -4.512  0.00  0.00     0.200 C 
BRANCH  29  30
HETATM   30  C           0       3.777 -27.417  -5.059  0.00  0.00     0.242 C 
HETATM   31  N           0       3.731 -27.684  -6.372  0.00  0.00    -0.354 N 
HETATM   32  H           0       4.498 -27.474  -7.007  0.00  0.00     0.162 HD
HETATM   33  O           0       2.870 -27.721  -4.269  0.00  0.00    -0.271 OA
BRANCH  31  34
HETATM   34  C           0       2.642 -28.405  -7.004  0.00  0.00     0.203 C 
BRANCH  34  35
HETATM   35  C           0       1.540 -27.416  -7.480  0.00  0.00     0.307 C 
HETATM   36  O           0       1.935 -26.415  -8.137  0.00  0.00    -0.186 OA
HETATM   37  O           0       0.369 -27.727  -7.155  0.00  0.00    -0.186 OA
ENDBRANCH  34  35
ENDBRANCH  31  34
ENDBRANCH  29  30
BRANCH  29  38
HETATM   38  C           0       4.618 -25.832  -3.293  0.00  0.00     0.199 C 
BRANCH  38  39
HETATM   39  O           0       4.167 -24.540  -3.656  0.00  0.00    -0.398 OA
HETATM   40  H           0       4.663 -24.223  -4.430  0.00  0.00     0.209 HD
ENDBRANCH  38  39
ENDBRANCH  29  38
ENDBRANCH  26  29
ENDBRANCH  20  25
ENDBRANCH   5  18
ENDBRANCH   3   5
BRANCH   1  41
HETATM   41  C           0      12.080 -19.378  -4.664  0.00  0.00     0.185 C 
BRANCH  41  42
HETATM   42  C           0      13.569 -19.073  -4.920  0.00  0.00     0.137 C 
BRANCH  42  43
HETATM   43  C           0      14.486 -19.295  -3.717  0.00  0.00     0.217 C 
HETATM   44  N           0      15.200 -18.206  -3.360  0.00  0.00    -0.370 N 
HETATM   45  H           0      15.898 -18.326  -2.639  0.00  0.00     0.159 HD
HETATM   46  H           0      15.181 -17.330  -3.896  0.00  0.00     0.159 HD
HETATM   47  O           0      14.577 -20.391  -3.160  0.00  0.00    -0.274 OA
ENDBRANCH  42  43
ENDBRANCH  41  42
BRANCH  41  48
HETATM   48  N           0      11.838 -19.186  -3.239  0.00  0.00    -0.346 N 
HETATM   49  H           0      11.841 -20.001  -2.639  0.00  0.00     0.163 HD
HETATM   50  C           0      11.516 -17.998  -2.687  0.00  0.00     0.241 C 
HETATM   51  O           0      11.371 -16.961  -3.346  0.00  0.00    -0.271 OA
BRANCH  50  52
HETATM   52  C           0      11.357 -17.972  -1.155  0.00  0.00     0.177 C 
BRANCH  52  53
HETATM   53  N           0      12.570 -18.396  -0.463  0.00  0.00    -0.346 N 
HETATM   54  H           0      13.200 -17.689  -0.104  0.00  0.00     0.163 HD
HETATM   55  C           0      12.815 -19.703  -0.178  0.00  0.00     0.236 C 
HETATM   56  O           0      12.043 -20.610  -0.477  0.00  0.00    -0.272 OA
BRANCH  55  57
HETATM   57  C           0      14.117 -20.008   0.576  0.00  0.00     0.225 C 
BRANCH  57  58
HETATM   58  N           0      14.825 -18.823   1.056  0.00  0.00    -0.351 N 
HETATM   59  H           0      14.587 -18.484   1.977  0.00  0.00     0.163 HD
HETATM   60  C           0      15.940 -18.407   0.410  0.00  0.00     0.248 C 
HETATM   61  O           0      16.324 -18.951  -0.630  0.00  0.00    -0.271 OA
BRANCH  60  62
HETATM   62  C           0      16.747 -17.215   0.939  0.00  0.00     0.275 C 
BRANCH  62  63
HETATM   63  N           0      16.751 -16.029  -0.011  0.00  0.00    -0.066 N 
HETATM   64  H           0      17.697 -15.767  -0.309  0.00  0.00     0.275 HD
HETATM   65  H           0      16.181 -16.170  -0.851  0.00  0.00     0.275 HD
HETATM   66  H           0      16.356 -15.211   0.464  0.00  0.00     0.275 HD
ENDBRANCH  62  63
BRANCH  62  67
HETATM   67  C           0      16.338 -16.730   2.339  0.00  0.00     0.053 C 
BRANCH  67  68
HETATM   68  C           0      15.492 -15.452   2.344  0.00  0.00     0.115 C 
BRANCH  68  69
HETATM   69  C           0      13.980 -15.621   2.595  0.00  0.00     0.172 C 
HETATM   70  O           0      13.321 -16.386   1.843  0.00  0.00    -0.648 OA
HETATM   71  O           0      13.496 -14.940   3.556  0.00  0.00    -0.648 OA
ENDBRANCH  68  69
ENDBRANCH  67  68
ENDBRANCH  62  67
ENDBRANCH  60  62
ENDBRANCH  57  58
ENDBRANCH  55  57
ENDBRANCH  52  53
BRANCH  52  72
HETATM   72  C           0      10.951 -16.569  -0.647  0.00  0.00     0.038 C 
BRANCH  72  73
HETATM   73  C           0       9.534 -16.422  -0.061  0.00  0.00    -0.020 C 
HETATM   74  C           0       9.418 -15.237   0.908  0.00  0.00     0.009 C 
HETATM   75  C           0       8.524 -16.290  -1.211  0.00  0.00     0.009 C 
ENDBRANCH  72  73
ENDBRANCH  52  72
ENDBRANCH  50  52
ENDBRANCH  41  48
ENDBRANCH   1  41
TORSDOF 28
ENDMDL
