MODEL 1
REMARK VINA RESULT:      -6.1      0.000      0.000
REMARK  28 active torsions:
REMARK  status: ('A' for Active; 'I' for Inactive)
REMARK       I    between atoms: C_1  and  N_3 
REMARK    1  A    between atoms: C_1  and  C_41 
REMARK    2  A    between atoms: N_3  and  C_5 
REMARK    3  A    between atoms: C_5  and  C_6 
REMARK    4  A    between atoms: C_5  and  C_18 
REMARK       I    between atoms: C_18  and  N_19 
REMARK    5  A    between atoms: C_20  and  C_25 
REMARK       I    between atoms: C_25  and  N_26 
REMARK    6  A    between atoms: N_26  and  C_29 
REMARK    7  A    between atoms: C_29  and  C_30 
REMARK    8  A    between atoms: C_29  and  C_38 
REMARK       I    between atoms: C_30  and  N_31 
REMARK    9  A    between atoms: N_31  and  C_34 
REMARK   10  A    between atoms: C_34  and  C_35 
REMARK   11  A    between atoms: C_38  and  O_39 
REMARK   12  A    between atoms: C_6  and  C_7 
REMARK   13  A    between atoms: C_7  and  C_8 
REMARK   14  A    between atoms: C_8  and  N_9 
REMARK       I    between atoms: N_9  and  C_10 
REMARK       I    between atoms: C_10  and  N_12 
REMARK   15  A    between atoms: C_41  and  C_42 
REMARK   16  A    between atoms: C_41  and  N_48 
REMARK       I    between atoms: N_48  and  C_50 
REMARK   17  A    between atoms: C_50  and  C_52 
REMARK   18  A    between atoms: C_52  and  N_53 
REMARK   19  A    between atoms: C_52  and  C_72 
REMARK       I    between atoms: N_53  and  C_55 
REMARK   20  A    between atoms: C_55  and  C_57 
REMARK   21  A    between atoms: C_57  and  N_58 
REMARK       I    between atoms: N_58  and  C_60 
REMARK   22  A    between atoms: C_60  and  C_62 
REMARK   23  A    between atoms: C_62  and  N_63 
REMARK   24  A    between atoms: C_62  and  C_67 
REMARK   25  A    between atoms: C_67  and  C_68 
REMARK   26  A    between atoms: C_68  and  C_69 
REMARK   27  A    between atoms: C_72  and  C_73 
REMARK   28  A    between atoms: C_42  and  C_43 
REMARK       I    between atoms: C_43  and  N_44 
ROOT
HETATM    1  C           0      -9.578  -8.827   5.170  0.00  0.00     0.241 C 
HETATM    2  O           0     -10.706  -9.249   4.888  0.00  0.00    -0.271 OA
HETATM    3  N           0      -9.203  -7.556   4.895  0.00  0.00    -0.346 N 
HETATM    4  H           0      -8.258  -7.259   5.110  0.00  0.00     0.163 HD
ENDROOT
BRANCH   3   5
HETATM    5  C           0     -10.187  -6.582   4.427  0.00  0.00     0.176 C 
BRANCH   5   6
HETATM    6  C           0     -10.507  -5.535   5.506  0.00  0.00     0.036 C 
BRANCH   6   7
HETATM    7  C           0     -10.346  -6.128   6.911  0.00  0.00     0.023 C 
BRANCH   7   8
HETATM    8  C           0     -10.556  -5.122   8.043  0.00  0.00     0.138 C 
BRANCH   8   9
HETATM    9  N           0     -10.380  -3.786   7.480  0.00  0.00    -0.227 N 
HETATM   10  C           0      -9.525  -2.854   7.891  0.00  0.00     0.665 C 
HETATM   11  N           0      -8.738  -3.042   8.960  0.00  0.00    -0.235 N 
HETATM   12  N           0      -9.464  -1.709   7.188  0.00  0.00    -0.235 N 
HETATM   13  H           0      -7.998  -2.391   9.174  0.00  0.00     0.174 HD
HETATM   14  H           0      -8.724  -3.927   9.441  0.00  0.00     0.174 HD
HETATM   15  H           0      -9.026  -0.892   7.584  0.00  0.00     0.174 HD
HETATM   16  H           0     -10.185  -1.589   6.472  0.00  0.00     0.174 HD
HETATM   17  H           0     -10.977  -3.486   6.691  0.00  0.00     0.177 HD
ENDBRANCH   8   9
ENDBRANCH   7   8
ENDBRANCH   6   7
ENDBRANCH   5   6
BRANCH   5  18
HETATM   18  C           0      -9.893  -5.956   3.045  0.00  0.00     0.243 C 
HETATM   19  N           0     -10.902  -5.438   2.294  0.00  0.00    -0.337 N 
HETATM   20  C           0     -10.580  -4.738   1.039  0.00  0.00     0.179 C 
HETATM   21  C           0     -12.325  -5.841   2.309  0.00  0.00     0.127 C 
HETATM   22  C           0     -11.829  -4.943   0.137  0.00  0.00     0.037 C 
HETATM   23  C           0     -12.617  -6.071   0.823  0.00  0.00     0.022 C 
HETATM   24  O           0      -8.711  -5.888   2.695  0.00  0.00    -0.271 OA
BRANCH  20  25
HETATM   25  C           0     -10.269  -3.239   1.194  0.00  0.00     0.241 C 
HETATM   26  N           0      -9.189  -2.888   1.937  0.00  0.00    -0.344 N 
HETATM   27  H           0      -8.610  -3.610   2.359  0.00  0.00     0.163 HD
HETATM   28  O           0     -11.016  -2.418   0.656  0.00  0.00    -0.271 OA
BRANCH  26  29
HETATM   29  C           0      -8.920  -1.503   2.296  0.00  0.00     0.200 C 
BRANCH  29  30
HETATM   30  C           0      -7.435  -1.132   2.474  0.00  0.00     0.242 C 
HETATM   31  N           0      -7.125  -0.190   3.375  0.00  0.00    -0.354 N 
HETATM   32  H           0      -7.817   0.249   3.977  0.00  0.00     0.162 HD
HETATM   33  O           0      -6.589  -1.712   1.776  0.00  0.00    -0.271 OA
BRANCH  31  34
HETATM   34  C           0      -5.764   0.216   3.673  0.00  0.00     0.203 C 
BRANCH  34  35
HETATM   35  C           0      -5.493   0.122   5.202  0.00  0.00     0.307 C 
HETATM   36  O           0      -5.577  -1.026   5.714  0.00  0.00    -0.186 OA
HETATM   37  O           0      -5.216   1.211   5.762  0.00  0.00    -0.186 OA
ENDBRANCH  34  35
ENDBRANCH  31  34
ENDBRANCH  29  30
BRANCH  29  38
HETATM   38  C           0      -9.704  -1.097   3.562  0.00  0.00     0.199 C 
BRANCH  38  39
HETATM   39  O           0     -10.123   0.255   3.538  0.00  0.00    -0.398 OA
HETATM   40  H           0      -9.988   0.658   4.412  0.00  0.00     0.209 HD
ENDBRANCH  38  39
ENDBRANCH  29  38
ENDBRANCH  26  29
ENDBRANCH  20  25
ENDBRANCH   5  18
ENDBRANCH   3   5
BRANCH   1  41
HETATM   41  C           0      -8.552  -9.720   5.899  0.00  0.00     0.185 C 
BRANCH  41  42
HETATM   42  C           0      -7.101  -9.248   5.681  0.00  0.00     0.137 C 
BRANCH  42  43
HETATM   43  C           0      -6.429  -8.647   6.915  0.00  0.00     0.217 C 
HETATM   44  N           0      -7.159  -8.751   8.046  0.00  0.00    -0.370 N 
HETATM   45  H           0      -6.809  -8.279   8.868  0.00  0.00     0.159 HD
HETATM   46  H           0      -8.111  -9.136   8.059  0.00  0.00     0.159 HD
HETATM   47  O           0      -5.332  -8.087   6.853  0.00  0.00    -0.274 OA
ENDBRANCH  42  43
ENDBRANCH  41  42
BRANCH  41  48
HETATM   48  N           0      -8.625 -11.110   5.465  0.00  0.00    -0.346 N 
HETATM   49  H           0      -8.813 -11.819   6.162  0.00  0.00     0.163 HD
HETATM   50  C           0      -8.363 -11.516   4.206  0.00  0.00     0.241 C 
HETATM   51  O           0      -8.010 -10.746   3.304  0.00  0.00    -0.271 OA
BRANCH  50  52
HETATM   52  C           0      -8.553 -13.017   3.914  0.00  0.00     0.177 C 
BRANCH  52  53
HETATM   53  N           0      -8.217 -13.854   5.061  0.00  0.00    -0.346 N 
HETATM   54  H           0      -8.095 -13.416   5.966  0.00  0.00     0.163 HD
HETATM   55  C           0      -8.188 -15.211   4.977  0.00  0.00     0.236 C 
HETATM   56  O           0      -8.440 -15.823   3.942  0.00  0.00    -0.272 OA
BRANCH  55  57
HETATM   57  C           0      -7.844 -15.971   6.266  0.00  0.00     0.225 C 
BRANCH  57  58
HETATM   58  N           0      -6.671 -15.458   6.970  0.00  0.00    -0.351 N 
HETATM   59  H           0      -6.833 -14.797   7.717  0.00  0.00     0.163 HD
HETATM   60  C           0      -5.478 -16.077   6.815  0.00  0.00     0.248 C 
HETATM   61  O           0      -5.335 -17.013   6.020  0.00  0.00    -0.271 OA
BRANCH  60  62
HETATM   62  C           0      -4.249 -15.611   7.604  0.00  0.00     0.275 C 
BRANCH  62  63
HETATM   63  N           0      -3.107 -15.151   6.713  0.00  0.00    -0.066 N 
HETATM   64  H           0      -2.267 -14.904   7.246  0.00  0.00     0.275 HD
HETATM   65  H           0      -2.840 -15.834   5.997  0.00  0.00     0.275 HD
HETATM   66  H           0      -3.391 -14.307   6.205  0.00  0.00     0.275 HD
ENDBRANCH  62  63
BRANCH  62  67
HETATM   67  C           0      -4.532 -14.522   8.652  0.00  0.00     0.053 C 
BRANCH  67  68
HETATM   68  C           0      -4.282 -13.091   8.162  0.00  0.00     0.115 C 
BRANCH  68  69
HETATM   69  C           0      -5.523 -12.261   7.779  0.00  0.00     0.172 C 
HETATM   70  O           0      -6.025 -12.410   6.634  0.00  0.00    -0.648 OA
HETATM   71  O           0      -5.946 -11.451   8.666  0.00  0.00    -0.648 OA
ENDBRANCH  68  69
ENDBRANCH  67  68
ENDBRANCH  62  67
ENDBRANCH  60  62
ENDBRANCH  57  58
ENDBRANCH  55  57
ENDBRANCH  52  53
BRANCH  52  72
HETATM   72  C           0      -9.998 -13.333   3.465  0.00  0.00     0.038 C 
BRANCH  72  73
HETATM   73  C           0     -10.262 -13.387   1.948  0.00  0.00    -0.020 C 
HETATM   74  C           0     -10.974 -14.678   1.519  0.00  0.00     0.009 C 
HETATM   75  C           0     -11.075 -12.150   1.533  0.00  0.00     0.009 C 
ENDBRANCH  72  73
ENDBRANCH  52  72
ENDBRANCH  50  52
ENDBRANCH  41  48
ENDBRANCH   1  41
TORSDOF 28
ENDMDL
MODEL 2
REMARK VINA RESULT:      -6.1      2.470     12.460
REMARK  28 active torsions:
REMARK  status: ('A' for Active; 'I' for Inactive)
REMARK       I    between atoms: C_1  and  N_3 
REMARK    1  A    between atoms: C_1  and  C_41 
REMARK    2  A    between atoms: N_3  and  C_5 
REMARK    3  A    between atoms: C_5  and  C_6 
REMARK    4  A    between atoms: C_5  and  C_18 
REMARK       I    between atoms: C_18  and  N_19 
REMARK    5  A    between atoms: C_20  and  C_25 
REMARK       I    between atoms: C_25  and  N_26 
REMARK    6  A    between atoms: N_26  and  C_29 
REMARK    7  A    between atoms: C_29  and  C_30 
REMARK    8  A    between atoms: C_29  and  C_38 
REMARK       I    between atoms: C_30  and  N_31 
REMARK    9  A    between atoms: N_31  and  C_34 
REMARK   10  A    between atoms: C_34  and  C_35 
REMARK   11  A    between atoms: C_38  and  O_39 
REMARK   12  A    between atoms: C_6  and  C_7 
REMARK   13  A    between atoms: C_7  and  C_8 
REMARK   14  A    between atoms: C_8  and  N_9 
REMARK       I    between atoms: N_9  and  C_10 
REMARK       I    between atoms: C_10  and  N_12 
REMARK   15  A    between atoms: C_41  and  C_42 
REMARK   16  A    between atoms: C_41  and  N_48 
REMARK       I    between atoms: N_48  and  C_50 
REMARK   17  A    between atoms: C_50  and  C_52 
REMARK   18  A    between atoms: C_52  and  N_53 
REMARK   19  A    between atoms: C_52  and  C_72 
REMARK       I    between atoms: N_53  and  C_55 
REMARK   20  A    between atoms: C_55  and  C_57 
REMARK   21  A    between atoms: C_57  and  N_58 
REMARK       I    between atoms: N_58  and  C_60 
REMARK   22  A    between atoms: C_60  and  C_62 
REMARK   23  A    between atoms: C_62  and  N_63 
REMARK   24  A    between atoms: C_62  and  C_67 
REMARK   25  A    between atoms: C_67  and  C_68 
REMARK   26  A    between atoms: C_68  and  C_69 
REMARK   27  A    between atoms: C_72  and  C_73 
REMARK   28  A    between atoms: C_42  and  C_43 
REMARK       I    between atoms: C_43  and  N_44 
ROOT
HETATM    1  C           0      -8.715 -10.676   5.592  0.00  0.00     0.241 C 
HETATM    2  O           0      -7.636 -10.351   5.084  0.00  0.00    -0.271 OA
HETATM    3  N           0      -8.821 -11.742   6.420  0.00  0.00    -0.346 N 
HETATM    4  H           0      -9.730 -11.996   6.789  0.00  0.00     0.163 HD
ENDROOT
BRANCH   3   5
HETATM    5  C           0      -7.622 -12.431   6.892  0.00  0.00     0.176 C 
BRANCH   5   6
HETATM    6  C           0      -7.031 -11.752   8.139  0.00  0.00     0.036 C 
BRANCH   6   7
HETATM    7  C           0      -5.554 -11.401   7.925  0.00  0.00     0.023 C 
BRANCH   7   8
HETATM    8  C           0      -5.138 -10.056   8.521  0.00  0.00     0.138 C 
BRANCH   8   9
HETATM    9  N           0      -6.305  -9.178   8.479  0.00  0.00    -0.227 N 
HETATM   10  C           0      -6.608  -8.301   7.527  0.00  0.00     0.665 C 
HETATM   11  N           0      -5.796  -8.084   6.483  0.00  0.00    -0.235 N 
HETATM   12  N           0      -7.774  -7.638   7.639  0.00  0.00    -0.235 N 
HETATM   13  H           0      -6.103  -7.526   5.701  0.00  0.00     0.174 HD
HETATM   14  H           0      -4.962  -8.634   6.356  0.00  0.00     0.174 HD
HETATM   15  H           0      -7.939  -6.805   7.095  0.00  0.00     0.174 HD
HETATM   16  H           0      -8.271  -7.760   8.524  0.00  0.00     0.174 HD
HETATM   17  H           0      -6.979  -9.196   9.263  0.00  0.00     0.177 HD
ENDBRANCH   8   9
ENDBRANCH   7   8
ENDBRANCH   6   7
ENDBRANCH   5   6
BRANCH   5  18
HETATM   18  C           0      -7.754 -13.962   7.042  0.00  0.00     0.243 C 
HETATM   19  N           0      -7.922 -14.751   5.946  0.00  0.00    -0.337 N 
HETATM   20  C           0      -7.921 -16.215   6.104  0.00  0.00     0.179 C 
HETATM   21  C           0      -8.545 -14.371   4.660  0.00  0.00     0.127 C 
HETATM   22  C           0      -8.818 -16.740   4.948  0.00  0.00     0.037 C 
HETATM   23  C           0      -9.564 -15.495   4.445  0.00  0.00     0.022 C 
HETATM   24  O           0      -7.632 -14.433   8.177  0.00  0.00    -0.271 OA
BRANCH  20  25
HETATM   25  C           0      -6.531 -16.872   6.048  0.00  0.00     0.241 C 
HETATM   26  N           0      -5.692 -16.674   7.096  0.00  0.00    -0.344 N 
HETATM   27  H           0      -5.998 -16.115   7.889  0.00  0.00     0.163 HD
HETATM   28  O           0      -6.227 -17.536   5.054  0.00  0.00    -0.271 OA
BRANCH  26  29
HETATM   29  C           0      -4.299 -17.095   7.056  0.00  0.00     0.200 C 
BRANCH  29  30
HETATM   30  C           0      -4.060 -18.616   6.976  0.00  0.00     0.242 C 
HETATM   31  N           0      -3.744 -19.141   5.784  0.00  0.00    -0.354 N 
HETATM   32  H           0      -3.608 -18.576   4.949  0.00  0.00     0.162 HD
HETATM   33  O           0      -4.172 -19.291   8.010  0.00  0.00    -0.271 OA
BRANCH  31  34
HETATM   34  C           0      -3.447 -20.547   5.582  0.00  0.00     0.203 C 
BRANCH  34  35
HETATM   35  C           0      -2.771 -20.765   4.198  0.00  0.00     0.307 C 
HETATM   36  O           0      -3.164 -20.018   3.262  0.00  0.00    -0.186 OA
HETATM   37  O           0      -1.900 -21.667   4.166  0.00  0.00    -0.186 OA
ENDBRANCH  34  35
ENDBRANCH  31  34
ENDBRANCH  29  30
BRANCH  29  38
HETATM   38  C           0      -3.510 -16.515   8.249  0.00  0.00     0.199 C 
BRANCH  38  39
HETATM   39  O           0      -2.248 -17.131   8.423  0.00  0.00    -0.398 OA
HETATM   40  H           0      -2.176 -17.906   7.841  0.00  0.00     0.209 HD
ENDBRANCH  38  39
ENDBRANCH  29  38
ENDBRANCH  26  29
ENDBRANCH  20  25
ENDBRANCH   5  18
ENDBRANCH   3   5
BRANCH   1  41
HETATM   41  C           0      -9.995  -9.849   5.346  0.00  0.00     0.185 C 
BRANCH  41  42
HETATM   42  C           0     -11.059 -10.631   4.553  0.00  0.00     0.137 C 
BRANCH  42  43
HETATM   43  C           0     -12.349 -10.920   5.320  0.00  0.00     0.217 C 
HETATM   44  N           0     -12.537 -10.130   6.399  0.00  0.00    -0.370 N 
HETATM   45  H           0     -13.320 -10.346   7.001  0.00  0.00     0.159 HD
HETATM   46  H           0     -11.839  -9.446   6.715  0.00  0.00     0.159 HD
HETATM   47  O           0     -13.119 -11.824   4.987  0.00  0.00    -0.274 OA
ENDBRANCH  42  43
ENDBRANCH  41  42
BRANCH  41  48
HETATM   48  N           0      -9.723  -8.620   4.611  0.00  0.00    -0.346 N 
HETATM   49  H           0      -8.906  -8.590   4.016  0.00  0.00     0.163 HD
HETATM   50  C           0     -10.443  -7.488   4.752  0.00  0.00     0.241 C 
HETATM   51  O           0     -11.391  -7.380   5.540  0.00  0.00    -0.271 OA
BRANCH  50  52
HETATM   52  C           0     -10.050  -6.305   3.847  0.00  0.00     0.177 C 
BRANCH  52  53
HETATM   53  N           0      -9.829  -5.076   4.602  0.00  0.00    -0.346 N 
HETATM   54  H           0      -8.957  -4.962   5.104  0.00  0.00     0.163 HD
HETATM   55  C           0     -10.701  -4.033   4.549  0.00  0.00     0.236 C 
HETATM   56  O           0     -11.724  -4.049   3.869  0.00  0.00    -0.272 OA
BRANCH  55  57
HETATM   57  C           0     -10.334  -2.791   5.373  0.00  0.00     0.225 C 
BRANCH  57  58
HETATM   58  N           0      -9.113  -2.118   4.934  0.00  0.00    -0.351 N 
HETATM   59  H           0      -8.235  -2.506   5.247  0.00  0.00     0.163 HD
HETATM   60  C           0      -9.175  -1.219   3.924  0.00  0.00     0.248 C 
HETATM   61  O           0     -10.254  -0.884   3.423  0.00  0.00    -0.271 OA
BRANCH  60  62
HETATM   62  C           0      -7.899  -0.559   3.389  0.00  0.00     0.275 C 
BRANCH  62  63
HETATM   63  N           0      -7.820  -0.558   1.872  0.00  0.00    -0.066 N 
HETATM   64  H           0      -8.290   0.252   1.453  0.00  0.00     0.275 HD
HETATM   65  H           0      -6.863  -0.593   1.507  0.00  0.00     0.275 HD
HETATM   66  H           0      -8.292  -1.392   1.506  0.00  0.00     0.275 HD
ENDBRANCH  62  63
BRANCH  62  67
HETATM   67  C           0      -7.648   0.869   3.901  0.00  0.00     0.053 C 
BRANCH  67  68
HETATM   68  C           0      -6.801   0.945   5.177  0.00  0.00     0.115 C 
BRANCH  68  69
HETATM   69  C           0      -6.129  -0.362   5.643  0.00  0.00     0.172 C 
HETATM   70  O           0      -6.710  -1.071   6.506  0.00  0.00    -0.648 OA
HETATM   71  O           0      -4.997  -0.622   5.121  0.00  0.00    -0.648 OA
ENDBRANCH  68  69
ENDBRANCH  67  68
ENDBRANCH  62  67
ENDBRANCH  60  62
ENDBRANCH  57  58
ENDBRANCH  55  57
ENDBRANCH  52  53
BRANCH  52  72
HETATM   72  C           0      -8.786  -6.619   3.013  0.00  0.00     0.038 C 
BRANCH  72  73
HETATM   73  C           0      -8.725  -6.034   1.589  0.00  0.00    -0.020 C 
HETATM   74  C           0     -10.074  -5.462   1.130  0.00  0.00     0.009 C 
HETATM   75  C           0      -7.627  -4.961   1.531  0.00  0.00     0.009 C 
ENDBRANCH  72  73
ENDBRANCH  52  72
ENDBRANCH  50  52
ENDBRANCH  41  48
ENDBRANCH   1  41
TORSDOF 28
ENDMDL
MODEL 3
REMARK VINA RESULT:      -6.1      2.408     12.247
REMARK  28 active torsions:
REMARK  status: ('A' for Active; 'I' for Inactive)
REMARK       I    between atoms: C_1  and  N_3 
REMARK    1  A    between atoms: C_1  and  C_41 
REMARK    2  A    between atoms: N_3  and  C_5 
REMARK    3  A    between atoms: C_5  and  C_6 
REMARK    4  A    between atoms: C_5  and  C_18 
REMARK       I    between atoms: C_18  and  N_19 
REMARK    5  A    between atoms: C_20  and  C_25 
REMARK       I    between atoms: C_25  and  N_26 
REMARK    6  A    between atoms: N_26  and  C_29 
REMARK    7  A    between atoms: C_29  and  C_30 
REMARK    8  A    between atoms: C_29  and  C_38 
REMARK       I    between atoms: C_30  and  N_31 
REMARK    9  A    between atoms: N_31  and  C_34 
REMARK   10  A    between atoms: C_34  and  C_35 
REMARK   11  A    between atoms: C_38  and  O_39 
REMARK   12  A    between atoms: C_6  and  C_7 
REMARK   13  A    between atoms: C_7  and  C_8 
REMARK   14  A    between atoms: C_8  and  N_9 
REMARK       I    between atoms: N_9  and  C_10 
REMARK       I    between atoms: C_10  and  N_12 
REMARK   15  A    between atoms: C_41  and  C_42 
REMARK   16  A    between atoms: C_41  and  N_48 
REMARK       I    between atoms: N_48  and  C_50 
REMARK   17  A    between atoms: C_50  and  C_52 
REMARK   18  A    between atoms: C_52  and  N_53 
REMARK   19  A    between atoms: C_52  and  C_72 
REMARK       I    between atoms: N_53  and  C_55 
REMARK   20  A    between atoms: C_55  and  C_57 
REMARK   21  A    between atoms: C_57  and  N_58 
REMARK       I    between atoms: N_58  and  C_60 
REMARK   22  A    between atoms: C_60  and  C_62 
REMARK   23  A    between atoms: C_62  and  N_63 
REMARK   24  A    between atoms: C_62  and  C_67 
REMARK   25  A    between atoms: C_67  and  C_68 
REMARK   26  A    between atoms: C_68  and  C_69 
REMARK   27  A    between atoms: C_72  and  C_73 
REMARK   28  A    between atoms: C_42  and  C_43 
REMARK       I    between atoms: C_43  and  N_44 
ROOT
HETATM    1  C           0     -10.128  -8.026   4.206  0.00  0.00     0.241 C 
HETATM    2  O           0     -10.901  -8.251   5.145  0.00  0.00    -0.271 OA
HETATM    3  N           0      -9.330  -8.993   3.693  0.00  0.00    -0.346 N 
HETATM    4  H           0      -8.684  -8.761   2.948  0.00  0.00     0.163 HD
ENDROOT
BRANCH   3   5
HETATM    5  C           0      -9.498 -10.384   4.109  0.00  0.00     0.176 C 
BRANCH   5   6
HETATM    6  C           0     -10.221 -11.214   3.035  0.00  0.00     0.036 C 
BRANCH   6   7
HETATM    7  C           0     -11.495 -11.852   3.600  0.00  0.00     0.023 C 
BRANCH   7   8
HETATM    8  C           0     -11.358 -13.339   3.927  0.00  0.00     0.138 C 
BRANCH   8   9
HETATM    9  N           0     -11.745 -14.087   2.733  0.00  0.00    -0.227 N 
HETATM   10  C           0     -10.933 -14.722   1.893  0.00  0.00     0.665 C 
HETATM   11  N           0      -9.601 -14.686   2.037  0.00  0.00    -0.235 N 
HETATM   12  N           0     -11.496 -15.419   0.889  0.00  0.00    -0.235 N 
HETATM   13  H           0      -9.008 -15.285   1.482  0.00  0.00     0.174 HD
HETATM   14  H           0      -9.180 -14.231   2.831  0.00  0.00     0.174 HD
HETATM   15  H           0     -10.942 -15.709   0.098  0.00  0.00     0.174 HD
HETATM   16  H           0     -12.503 -15.289   0.769  0.00  0.00     0.174 HD
HETATM   17  H           0     -12.743 -14.135   2.467  0.00  0.00     0.177 HD
ENDBRANCH   8   9
ENDBRANCH   7   8
ENDBRANCH   6   7
ENDBRANCH   5   6
BRANCH   5  18
HETATM   18  C           0      -8.224 -11.072   4.648  0.00  0.00     0.243 C 
HETATM   19  N           0      -7.812 -10.855   5.927  0.00  0.00    -0.337 N 
HETATM   20  C           0      -6.668 -11.618   6.454  0.00  0.00     0.179 C 
HETATM   21  C           0      -8.056  -9.653   6.752  0.00  0.00     0.127 C 
HETATM   22  C           0      -6.030 -10.688   7.524  0.00  0.00     0.037 C 
HETATM   23  C           0      -6.649  -9.308   7.252  0.00  0.00     0.022 C 
HETATM   24  O           0      -7.649 -11.866   3.899  0.00  0.00    -0.271 OA
BRANCH  20  25
HETATM   25  C           0      -7.026 -12.981   7.071  0.00  0.00     0.241 C 
HETATM   26  N           0      -7.103 -14.052   6.241  0.00  0.00    -0.344 N 
HETATM   27  H           0      -6.916 -13.937   5.249  0.00  0.00     0.163 HD
HETATM   28  O           0      -7.242 -13.047   8.283  0.00  0.00    -0.271 OA
BRANCH  26  29
HETATM   29  C           0      -7.613 -15.339   6.693  0.00  0.00     0.200 C 
BRANCH  29  30
HETATM   30  C           0      -6.550 -16.364   7.134  0.00  0.00     0.242 C 
HETATM   31  N           0      -6.097 -17.234   6.220  0.00  0.00    -0.354 N 
HETATM   32  H           0      -6.385 -17.212   5.245  0.00  0.00     0.162 HD
HETATM   33  O           0      -6.161 -16.349   8.312  0.00  0.00    -0.271 OA
BRANCH  31  34
HETATM   34  C           0      -5.064 -18.216   6.493  0.00  0.00     0.203 C 
BRANCH  34  35
HETATM   35  C           0      -4.749 -19.041   5.212  0.00  0.00     0.307 C 
HETATM   36  O           0      -5.445 -18.778   4.194  0.00  0.00    -0.186 OA
HETATM   37  O           0      -3.827 -19.883   5.334  0.00  0.00    -0.186 OA
ENDBRANCH  34  35
ENDBRANCH  31  34
ENDBRANCH  29  30
BRANCH  29  38
HETATM   38  C           0      -8.529 -15.977   5.628  0.00  0.00     0.199 C 
BRANCH  38  39
HETATM   39  O           0      -8.114 -15.691   4.305  0.00  0.00    -0.398 OA
HETATM   40  H           0      -8.356 -14.778   4.074  0.00  0.00     0.209 HD
ENDBRANCH  38  39
ENDBRANCH  29  38
ENDBRANCH  26  29
ENDBRANCH  20  25
ENDBRANCH   5  18
ENDBRANCH   3   5
BRANCH   1  41
HETATM   41  C           0     -10.066  -6.638   3.536  0.00  0.00     0.185 C 
BRANCH  41  42
HETATM   42  C           0      -8.689  -6.344   2.912  0.00  0.00     0.137 C 
BRANCH  42  43
HETATM   43  C           0      -8.733  -5.808   1.482  0.00  0.00     0.217 C 
HETATM   44  N           0      -7.518  -5.648   0.914  0.00  0.00    -0.370 N 
HETATM   45  H           0      -7.484  -5.200   0.010  0.00  0.00     0.159 HD
HETATM   46  H           0      -6.641  -5.807   1.427  0.00  0.00     0.159 HD
HETATM   47  O           0      -9.795  -5.517   0.926  0.00  0.00    -0.274 OA
ENDBRANCH  42  43
ENDBRANCH  41  42
BRANCH  41  48
HETATM   48  N           0     -10.355  -5.561   4.475  0.00  0.00    -0.346 N 
HETATM   49  H           0      -9.897  -5.577   5.377  0.00  0.00     0.163 HD
HETATM   50  C           0     -11.269  -4.595   4.249  0.00  0.00     0.241 C 
HETATM   51  O           0     -11.968  -4.547   3.230  0.00  0.00    -0.271 OA
BRANCH  50  52
HETATM   52  C           0     -11.395  -3.501   5.327  0.00  0.00     0.177 C 
BRANCH  52  53
HETATM   53  N           0     -10.151  -2.761   5.517  0.00  0.00    -0.346 N 
HETATM   54  H           0      -9.622  -2.479   4.702  0.00  0.00     0.163 HD
HETATM   55  C           0      -9.750  -2.333   6.744  0.00  0.00     0.236 C 
HETATM   56  O           0     -10.397  -2.535   7.769  0.00  0.00    -0.272 OA
BRANCH  55  57
HETATM   57  C           0      -8.434  -1.545   6.799  0.00  0.00     0.225 C 
BRANCH  57  58
HETATM   58  N           0      -8.098  -0.852   5.557  0.00  0.00    -0.351 N 
HETATM   59  H           0      -8.862  -0.459   5.026  0.00  0.00     0.163 HD
HETATM   60  C           0      -6.811  -0.508   5.314  0.00  0.00     0.248 C 
HETATM   61  O           0      -5.898  -0.845   6.075  0.00  0.00    -0.271 OA
BRANCH  60  62
HETATM   62  C           0      -6.442   0.291   4.058  0.00  0.00     0.275 C 
BRANCH  62  63
HETATM   63  N           0      -5.143   1.065   4.206  0.00  0.00    -0.066 N 
HETATM   64  H           0      -5.040   1.487   5.135  0.00  0.00     0.275 HD
HETATM   65  H           0      -4.305   0.508   4.015  0.00  0.00     0.275 HD
HETATM   66  H           0      -5.128   1.837   3.531  0.00  0.00     0.275 HD
ENDBRANCH  62  63
BRANCH  62  67
HETATM   67  C           0      -6.385  -0.535   2.763  0.00  0.00     0.053 C 
BRANCH  67  68
HETATM   68  C           0      -7.707  -0.588   1.987  0.00  0.00     0.115 C 
BRANCH  68  69
HETATM   69  C           0      -8.370  -1.971   1.838  0.00  0.00     0.172 C 
HETATM   70  O           0      -8.447  -2.488   0.693  0.00  0.00    -0.648 OA
HETATM   71  O           0      -8.819  -2.491   2.910  0.00  0.00    -0.648 OA
ENDBRANCH  68  69
ENDBRANCH  67  68
ENDBRANCH  62  67
ENDBRANCH  60  62
ENDBRANCH  57  58
ENDBRANCH  55  57
ENDBRANCH  52  53
BRANCH  52  72
HETATM   72  C           0     -12.530  -2.504   4.999  0.00  0.00     0.038 C 
BRANCH  72  73
HETATM   73  C           0     -13.893  -2.752   5.672  0.00  0.00    -0.020 C 
HETATM   74  C           0     -13.758  -3.403   7.056  0.00  0.00     0.009 C 
HETATM   75  C           0     -14.659  -1.422   5.765  0.00  0.00     0.009 C 
ENDBRANCH  72  73
ENDBRANCH  52  72
ENDBRANCH  50  52
ENDBRANCH  41  48
ENDBRANCH   1  41
TORSDOF 28
ENDMDL
MODEL 4
REMARK VINA RESULT:      -6.0      6.446     15.723
REMARK  28 active torsions:
REMARK  status: ('A' for Active; 'I' for Inactive)
REMARK       I    between atoms: C_1  and  N_3 
REMARK    1  A    between atoms: C_1  and  C_41 
REMARK    2  A    between atoms: N_3  and  C_5 
REMARK    3  A    between atoms: C_5  and  C_6 
REMARK    4  A    between atoms: C_5  and  C_18 
REMARK       I    between atoms: C_18  and  N_19 
REMARK    5  A    between atoms: C_20  and  C_25 
REMARK       I    between atoms: C_25  and  N_26 
REMARK    6  A    between atoms: N_26  and  C_29 
REMARK    7  A    between atoms: C_29  and  C_30 
REMARK    8  A    between atoms: C_29  and  C_38 
REMARK       I    between atoms: C_30  and  N_31 
REMARK    9  A    between atoms: N_31  and  C_34 
REMARK   10  A    between atoms: C_34  and  C_35 
REMARK   11  A    between atoms: C_38  and  O_39 
REMARK   12  A    between atoms: C_6  and  C_7 
REMARK   13  A    between atoms: C_7  and  C_8 
REMARK   14  A    between atoms: C_8  and  N_9 
REMARK       I    between atoms: N_9  and  C_10 
REMARK       I    between atoms: C_10  and  N_12 
REMARK   15  A    between atoms: C_41  and  C_42 
REMARK   16  A    between atoms: C_41  and  N_48 
REMARK       I    between atoms: N_48  and  C_50 
REMARK   17  A    between atoms: C_50  and  C_52 
REMARK   18  A    between atoms: C_52  and  N_53 
REMARK   19  A    between atoms: C_52  and  C_72 
REMARK       I    between atoms: N_53  and  C_55 
REMARK   20  A    between atoms: C_55  and  C_57 
REMARK   21  A    between atoms: C_57  and  N_58 
REMARK       I    between atoms: N_58  and  C_60 
REMARK   22  A    between atoms: C_60  and  C_62 
REMARK   23  A    between atoms: C_62  and  N_63 
REMARK   24  A    between atoms: C_62  and  C_67 
REMARK   25  A    between atoms: C_67  and  C_68 
REMARK   26  A    between atoms: C_68  and  C_69 
REMARK   27  A    between atoms: C_72  and  C_73 
REMARK   28  A    between atoms: C_42  and  C_43 
REMARK       I    between atoms: C_43  and  N_44 
ROOT
HETATM    1  C           0      -5.774 -21.342   3.169  0.00  0.00     0.241 C 
HETATM    2  O           0      -6.081 -21.992   4.175  0.00  0.00    -0.271 OA
HETATM    3  N           0      -5.610 -21.933   1.962  0.00  0.00    -0.346 N 
HETATM    4  H           0      -5.323 -21.372   1.169  0.00  0.00     0.163 HD
ENDROOT
BRANCH   3   5
HETATM    5  C           0      -5.979 -23.335   1.771  0.00  0.00     0.176 C 
BRANCH   5   6
HETATM    6  C           0      -6.563 -23.582   0.371  0.00  0.00     0.036 C 
BRANCH   6   7
HETATM    7  C           0      -7.784 -22.689   0.120  0.00  0.00     0.023 C 
BRANCH   7   8
HETATM    8  C           0      -8.932 -22.906   1.104  0.00  0.00     0.138 C 
BRANCH   8   9
HETATM    9  N           0      -9.258 -21.609   1.691  0.00  0.00    -0.227 N 
HETATM   10  C           0      -9.336 -21.317   2.986  0.00  0.00     0.665 C 
HETATM   11  N           0      -9.172 -22.254   3.931  0.00  0.00    -0.235 N 
HETATM   12  N           0      -9.577 -20.037   3.324  0.00  0.00    -0.235 N 
HETATM   13  H           0      -9.092 -21.995   4.903  0.00  0.00     0.174 HD
HETATM   14  H           0      -8.914 -23.196   3.684  0.00  0.00     0.174 HD
HETATM   15  H           0      -9.885 -19.807   4.256  0.00  0.00     0.174 HD
HETATM   16  H           0      -9.822 -19.413   2.552  0.00  0.00     0.174 HD
HETATM   17  H           0      -9.476 -20.813   1.069  0.00  0.00     0.177 HD
ENDBRANCH   8   9
ENDBRANCH   7   8
ENDBRANCH   6   7
ENDBRANCH   5   6
BRANCH   5  18
HETATM   18  C           0      -4.896 -24.364   2.165  0.00  0.00     0.243 C 
HETATM   19  N           0      -3.590 -24.143   1.856  0.00  0.00    -0.337 N 
HETATM   20  C           0      -2.564 -25.078   2.351  0.00  0.00     0.179 C 
HETATM   21  C           0      -3.061 -23.347   0.728  0.00  0.00     0.127 C 
HETATM   22  C           0      -1.423 -25.009   1.298  0.00  0.00     0.037 C 
HETATM   23  C           0      -2.060 -24.313   0.085  0.00  0.00     0.022 C 
HETATM   24  O           0      -5.259 -25.343   2.823  0.00  0.00    -0.271 OA
BRANCH  20  25
HETATM   25  C           0      -2.021 -24.760   3.754  0.00  0.00     0.241 C 
HETATM   26  N           0      -1.358 -23.587   3.928  0.00  0.00    -0.344 N 
HETATM   27  H           0      -1.246 -22.950   3.144  0.00  0.00     0.163 HD
HETATM   28  O           0      -2.191 -25.580   4.659  0.00  0.00    -0.271 OA
BRANCH  26  29
HETATM   29  C           0      -0.650 -23.281   5.162  0.00  0.00     0.200 C 
BRANCH  29  30
HETATM   30  C           0      -1.455 -22.505   6.223  0.00  0.00     0.242 C 
HETATM   31  N           0      -0.780 -21.725   7.079  0.00  0.00    -0.354 N 
HETATM   32  H           0       0.226 -21.585   7.025  0.00  0.00     0.162 HD
HETATM   33  O           0      -2.688 -22.637   6.248  0.00  0.00    -0.271 OA
BRANCH  31  34
HETATM   34  C           0      -1.421 -20.907   8.092  0.00  0.00     0.203 C 
BRANCH  34  35
HETATM   35  C           0      -0.734 -19.514   8.178  0.00  0.00     0.307 C 
HETATM   36  O           0       0.245 -19.422   8.967  0.00  0.00    -0.186 OA
HETATM   37  O           0      -1.233 -18.627   7.443  0.00  0.00    -0.186 OA
ENDBRANCH  34  35
ENDBRANCH  31  34
ENDBRANCH  29  30
BRANCH  29  38
HETATM   38  C           0       0.669 -22.532   4.872  0.00  0.00     0.199 C 
BRANCH  38  39
HETATM   39  O           0       0.478 -21.367   4.092  0.00  0.00    -0.398 OA
HETATM   40  H           0       0.992 -20.631   4.468  0.00  0.00     0.209 HD
ENDBRANCH  38  39
ENDBRANCH  29  38
ENDBRANCH  26  29
ENDBRANCH  20  25
ENDBRANCH   5  18
ENDBRANCH   3   5
BRANCH   1  41
HETATM   41  C           0      -5.608 -19.809   3.227  0.00  0.00     0.185 C 
BRANCH  41  42
HETATM   42  C           0      -4.162 -19.361   2.939  0.00  0.00     0.137 C 
BRANCH  42  43
HETATM   43  C           0      -3.086 -20.135   3.701  0.00  0.00     0.217 C 
HETATM   44  N           0      -2.752 -19.589   4.890  0.00  0.00    -0.370 N 
HETATM   45  H           0      -1.974 -20.000   5.386  0.00  0.00     0.159 HD
HETATM   46  H           0      -3.137 -18.694   5.218  0.00  0.00     0.159 HD
HETATM   47  O           0      -2.556 -21.146   3.235  0.00  0.00    -0.274 OA
ENDBRANCH  42  43
ENDBRANCH  41  42
BRANCH  41  48
HETATM   48  N           0      -5.979 -19.265   4.528  0.00  0.00    -0.346 N 
HETATM   49  H           0      -5.593 -19.700   5.356  0.00  0.00     0.163 HD
HETATM   50  C           0      -6.881 -18.277   4.696  0.00  0.00     0.241 C 
HETATM   51  O           0      -7.499 -17.755   3.760  0.00  0.00    -0.271 OA
BRANCH  50  52
HETATM   52  C           0      -7.102 -17.785   6.140  0.00  0.00     0.177 C 
BRANCH  52  53
HETATM   53  N           0      -6.244 -16.654   6.479  0.00  0.00    -0.346 N 
HETATM   54  H           0      -6.646 -15.725   6.501  0.00  0.00     0.163 HD
HETATM   55  C           0      -4.958 -16.825   6.887  0.00  0.00     0.236 C 
HETATM   56  O           0      -4.431 -17.929   6.999  0.00  0.00    -0.272 OA
BRANCH  55  57
HETATM   57  C           0      -4.175 -15.551   7.237  0.00  0.00     0.225 C 
BRANCH  57  58
HETATM   58  N           0      -4.739 -14.326   6.674  0.00  0.00    -0.351 N 
HETATM   59  H           0      -5.179 -14.395   5.767  0.00  0.00     0.163 HD
HETATM   60  C           0      -4.917 -13.248   7.472  0.00  0.00     0.248 C 
HETATM   61  O           0      -4.530 -13.243   8.646  0.00  0.00    -0.271 OA
BRANCH  60  62
HETATM   62  C           0      -5.581 -11.977   6.928  0.00  0.00     0.275 C 
BRANCH  62  63
HETATM   63  N           0      -6.611 -12.260   5.847  0.00  0.00    -0.066 N 
HETATM   64  H           0      -7.035 -13.189   5.941  0.00  0.00     0.275 HD
HETATM   65  H           0      -7.367 -11.569   5.805  0.00  0.00     0.275 HD
HETATM   66  H           0      -6.156 -12.237   4.929  0.00  0.00     0.275 HD
ENDBRANCH  62  63
BRANCH  62  67
HETATM   67  C           0      -6.217 -11.074   7.998  0.00  0.00     0.053 C 
BRANCH  67  68
HETATM   68  C           0      -6.979  -9.868   7.436  0.00  0.00     0.115 C 
BRANCH  68  69
HETATM   69  C           0      -6.141  -8.785   6.729  0.00  0.00     0.172 C 
HETATM   70  O           0      -5.341  -8.092   7.411  0.00  0.00    -0.648 OA
HETATM   71  O           0      -6.342  -8.655   5.478  0.00  0.00    -0.648 OA
ENDBRANCH  68  69
ENDBRANCH  67  68
ENDBRANCH  62  67
ENDBRANCH  60  62
ENDBRANCH  57  58
ENDBRANCH  55  57
ENDBRANCH  52  53
BRANCH  52  72
HETATM   72  C           0      -8.576 -17.392   6.390  0.00  0.00     0.038 C 
BRANCH  72  73
HETATM   73  C           0      -9.422 -18.361   7.238  0.00  0.00    -0.020 C 
HETATM   74  C           0      -9.169 -18.201   8.744  0.00  0.00     0.009 C 
HETATM   75  C           0     -10.909 -18.154   6.908  0.00  0.00     0.009 C 
ENDBRANCH  72  73
ENDBRANCH  52  72
ENDBRANCH  50  52
ENDBRANCH  41  48
ENDBRANCH   1  41
TORSDOF 28
ENDMDL
MODEL 5
REMARK VINA RESULT:      -6.0      3.138      6.861
REMARK  28 active torsions:
REMARK  status: ('A' for Active; 'I' for Inactive)
REMARK       I    between atoms: C_1  and  N_3 
REMARK    1  A    between atoms: C_1  and  C_41 
REMARK    2  A    between atoms: N_3  and  C_5 
REMARK    3  A    between atoms: C_5  and  C_6 
REMARK    4  A    between atoms: C_5  and  C_18 
REMARK       I    between atoms: C_18  and  N_19 
REMARK    5  A    between atoms: C_20  and  C_25 
REMARK       I    between atoms: C_25  and  N_26 
REMARK    6  A    between atoms: N_26  and  C_29 
REMARK    7  A    between atoms: C_29  and  C_30 
REMARK    8  A    between atoms: C_29  and  C_38 
REMARK       I    between atoms: C_30  and  N_31 
REMARK    9  A    between atoms: N_31  and  C_34 
REMARK   10  A    between atoms: C_34  and  C_35 
REMARK   11  A    between atoms: C_38  and  O_39 
REMARK   12  A    between atoms: C_6  and  C_7 
REMARK   13  A    between atoms: C_7  and  C_8 
REMARK   14  A    between atoms: C_8  and  N_9 
REMARK       I    between atoms: N_9  and  C_10 
REMARK       I    between atoms: C_10  and  N_12 
REMARK   15  A    between atoms: C_41  and  C_42 
REMARK   16  A    between atoms: C_41  and  N_48 
REMARK       I    between atoms: N_48  and  C_50 
REMARK   17  A    between atoms: C_50  and  C_52 
REMARK   18  A    between atoms: C_52  and  N_53 
REMARK   19  A    between atoms: C_52  and  C_72 
REMARK       I    between atoms: N_53  and  C_55 
REMARK   20  A    between atoms: C_55  and  C_57 
REMARK   21  A    between atoms: C_57  and  N_58 
REMARK       I    between atoms: N_58  and  C_60 
REMARK   22  A    between atoms: C_60  and  C_62 
REMARK   23  A    between atoms: C_62  and  N_63 
REMARK   24  A    between atoms: C_62  and  C_67 
REMARK   25  A    between atoms: C_67  and  C_68 
REMARK   26  A    between atoms: C_68  and  C_69 
REMARK   27  A    between atoms: C_72  and  C_73 
REMARK   28  A    between atoms: C_42  and  C_43 
REMARK       I    between atoms: C_43  and  N_44 
ROOT
HETATM    1  C           0      -9.421  -4.422   2.966  0.00  0.00     0.241 C 
HETATM    2  O           0      -8.889  -3.749   2.075  0.00  0.00    -0.271 OA
HETATM    3  N           0      -9.874  -3.859   4.110  0.00  0.00    -0.346 N 
HETATM    4  H           0     -10.272  -4.449   4.831  0.00  0.00     0.163 HD
ENDROOT
BRANCH   3   5
HETATM    5  C           0      -9.921  -2.404   4.248  0.00  0.00     0.176 C 
BRANCH   5   6
HETATM    6  C           0     -11.356  -1.903   4.480  0.00  0.00     0.036 C 
BRANCH   6   7
HETATM    7  C           0     -11.693  -0.746   3.533  0.00  0.00     0.023 C 
BRANCH   7   8
HETATM    8  C           0     -12.446  -1.168   2.271  0.00  0.00     0.138 C 
BRANCH   8   9
HETATM    9  N           0     -11.491  -1.848   1.399  0.00  0.00    -0.227 N 
HETATM   10  C           0     -10.815  -1.312   0.387  0.00  0.00     0.665 C 
HETATM   11  N           0     -10.999  -0.038   0.012  0.00  0.00    -0.235 N 
HETATM   12  N           0      -9.923  -2.092  -0.250  0.00  0.00    -0.235 N 
HETATM   13  H           0     -10.382   0.394  -0.659  0.00  0.00     0.174 HD
HETATM   14  H           0     -11.608   0.571   0.535  0.00  0.00     0.174 HD
HETATM   15  H           0      -9.569  -1.825  -1.156  0.00  0.00     0.174 HD
HETATM   16  H           0      -9.937  -3.082   0.006  0.00  0.00     0.174 HD
HETATM   17  H           0     -11.309  -2.856   1.537  0.00  0.00     0.177 HD
ENDBRANCH   8   9
ENDBRANCH   7   8
ENDBRANCH   6   7
ENDBRANCH   5   6
BRANCH   5  18
HETATM   18  C           0      -8.901  -1.800   5.237  0.00  0.00     0.243 C 
HETATM   19  N           0      -8.119  -0.750   4.866  0.00  0.00    -0.337 N 
HETATM   20  C           0      -7.245  -0.113   5.866  0.00  0.00     0.179 C 
HETATM   21  C           0      -7.674  -0.407   3.499  0.00  0.00     0.127 C 
HETATM   22  C           0      -6.052   0.454   5.048  0.00  0.00     0.037 C 
HETATM   23  C           0      -6.162  -0.237   3.679  0.00  0.00     0.022 C 
HETATM   24  O           0      -8.879  -2.262   6.382  0.00  0.00    -0.271 OA
BRANCH  20  25
HETATM   25  C           0      -7.909   1.002   6.692  0.00  0.00     0.241 C 
HETATM   26  N           0      -8.581   1.973   6.022  0.00  0.00    -0.344 N 
HETATM   27  H           0      -8.640   1.938   5.008  0.00  0.00     0.163 HD
HETATM   28  O           0      -7.794   0.983   7.920  0.00  0.00    -0.271 OA
BRANCH  26  29
HETATM   29  C           0      -9.081   3.164   6.694  0.00  0.00     0.200 C 
BRANCH  29  30
HETATM   30  C           0     -10.336   3.808   6.071  0.00  0.00     0.242 C 
HETATM   31  N           0     -10.582   3.579   4.774  0.00  0.00    -0.354 N 
HETATM   32  H           0     -10.010   2.963   4.202  0.00  0.00     0.162 HD
HETATM   33  O           0     -11.061   4.514   6.789  0.00  0.00    -0.271 OA
BRANCH  31  34
HETATM   34  C           0     -11.752   4.085   4.080  0.00  0.00     0.203 C 
BRANCH  34  35
HETATM   35  C           0     -11.864   3.445   2.667  0.00  0.00     0.307 C 
HETATM   36  O           0     -11.116   3.929   1.775  0.00  0.00    -0.186 OA
HETATM   37  O           0     -12.693   2.508   2.570  0.00  0.00    -0.186 OA
ENDBRANCH  34  35
ENDBRANCH  31  34
ENDBRANCH  29  30
BRANCH  29  38
HETATM   38  C           0      -7.973   4.230   6.832  0.00  0.00     0.199 C 
BRANCH  38  39
HETATM   39  O           0      -8.487   5.532   7.038  0.00  0.00    -0.398 OA
HETATM   40  H           0      -9.253   5.680   6.457  0.00  0.00     0.209 HD
ENDBRANCH  38  39
ENDBRANCH  29  38
ENDBRANCH  26  29
ENDBRANCH  20  25
ENDBRANCH   5  18
ENDBRANCH   3   5
BRANCH   1  41
HETATM   41  C           0      -9.640  -5.940   2.796  0.00  0.00     0.185 C 
BRANCH  41  42
HETATM   42  C           0     -11.074  -6.283   2.350  0.00  0.00     0.137 C 
BRANCH  42  43
HETATM   43  C           0     -11.642  -5.372   1.261  0.00  0.00     0.217 C 
HETATM   44  N           0     -10.929  -5.372   0.114  0.00  0.00    -0.370 N 
HETATM   45  H           0     -11.200  -4.710  -0.600  0.00  0.00     0.159 HD
HETATM   46  H           0     -10.044  -5.884   0.011  0.00  0.00     0.159 HD
HETATM   47  O           0     -12.645  -4.678   1.448  0.00  0.00    -0.274 OA
ENDBRANCH  42  43
ENDBRANCH  41  42
BRANCH  41  48
HETATM   48  N           0      -9.385  -6.673   4.030  0.00  0.00    -0.346 N 
HETATM   49  H           0      -9.537  -6.197   4.910  0.00  0.00     0.163 HD
HETATM   50  C           0      -8.866  -7.918   4.068  0.00  0.00     0.241 C 
HETATM   51  O           0      -8.535  -8.546   3.055  0.00  0.00    -0.271 OA
BRANCH  50  52
HETATM   52  C           0      -8.723  -8.562   5.460  0.00  0.00     0.177 C 
BRANCH  52  53
HETATM   53  N           0      -9.712  -9.610   5.693  0.00  0.00    -0.346 N 
HETATM   54  H           0      -9.409 -10.576   5.691  0.00  0.00     0.163 HD
HETATM   55  C           0     -10.997  -9.323   6.035  0.00  0.00     0.236 C 
HETATM   56  O           0     -11.412  -8.175   6.172  0.00  0.00    -0.272 OA
BRANCH  55  57
HETATM   57  C           0     -11.926 -10.520   6.275  0.00  0.00     0.225 C 
BRANCH  57  58
HETATM   58  N           0     -11.545 -11.731   5.550  0.00  0.00    -0.351 N 
HETATM   59  H           0     -11.293 -11.627   4.577  0.00  0.00     0.163 HD
HETATM   60  C           0     -11.260 -12.859   6.243  0.00  0.00     0.248 C 
HETATM   61  O           0     -11.403 -12.917   7.469  0.00  0.00    -0.271 OA
BRANCH  60  62
HETATM   62  C           0     -10.779 -14.119   5.514  0.00  0.00     0.275 C 
BRANCH  62  63
HETATM   63  N           0     -11.616 -14.457   4.292  0.00  0.00    -0.066 N 
HETATM   64  H           0     -12.442 -13.855   4.202  0.00  0.00     0.275 HD
HETATM   65  H           0     -11.095 -14.417   3.410  0.00  0.00     0.275 HD
HETATM   66  H           0     -11.963 -15.419   4.372  0.00  0.00     0.275 HD
ENDBRANCH  62  63
BRANCH  62  67
HETATM   67  C           0      -9.295 -14.105   5.113  0.00  0.00     0.053 C 
BRANCH  67  68
HETATM   68  C           0      -9.036 -13.692   3.659  0.00  0.00     0.115 C 
BRANCH  68  69
HETATM   69  C           0      -8.855 -12.186   3.386  0.00  0.00     0.172 C 
HETATM   70  O           0      -9.869 -11.491   3.113  0.00  0.00    -0.648 OA
HETATM   71  O           0      -7.659 -11.751   3.440  0.00  0.00    -0.648 OA
ENDBRANCH  68  69
ENDBRANCH  67  68
ENDBRANCH  62  67
ENDBRANCH  60  62
ENDBRANCH  57  58
ENDBRANCH  55  57
ENDBRANCH  52  53
BRANCH  52  72
HETATM   72  C           0      -7.308  -9.147   5.676  0.00  0.00     0.038 C 
BRANCH  72  73
HETATM   73  C           0      -7.070  -9.934   6.979  0.00  0.00    -0.020 C 
HETATM   74  C           0      -6.392 -11.290   6.733  0.00  0.00     0.009 C 
HETATM   75  C           0      -6.237  -9.074   7.943  0.00  0.00     0.009 C 
ENDBRANCH  72  73
ENDBRANCH  52  72
ENDBRANCH  50  52
ENDBRANCH  41  48
ENDBRANCH   1  41
TORSDOF 28
ENDMDL
MODEL 6
REMARK VINA RESULT:      -6.0      3.077     11.813
REMARK  28 active torsions:
REMARK  status: ('A' for Active; 'I' for Inactive)
REMARK       I    between atoms: C_1  and  N_3 
REMARK    1  A    between atoms: C_1  and  C_41 
REMARK    2  A    between atoms: N_3  and  C_5 
REMARK    3  A    between atoms: C_5  and  C_6 
REMARK    4  A    between atoms: C_5  and  C_18 
REMARK       I    between atoms: C_18  and  N_19 
REMARK    5  A    between atoms: C_20  and  C_25 
REMARK       I    between atoms: C_25  and  N_26 
REMARK    6  A    between atoms: N_26  and  C_29 
REMARK    7  A    between atoms: C_29  and  C_30 
REMARK    8  A    between atoms: C_29  and  C_38 
REMARK       I    between atoms: C_30  and  N_31 
REMARK    9  A    between atoms: N_31  and  C_34 
REMARK   10  A    between atoms: C_34  and  C_35 
REMARK   11  A    between atoms: C_38  and  O_39 
REMARK   12  A    between atoms: C_6  and  C_7 
REMARK   13  A    between atoms: C_7  and  C_8 
REMARK   14  A    between atoms: C_8  and  N_9 
REMARK       I    between atoms: N_9  and  C_10 
REMARK       I    between atoms: C_10  and  N_12 
REMARK   15  A    between atoms: C_41  and  C_42 
REMARK   16  A    between atoms: C_41  and  N_48 
REMARK       I    between atoms: N_48  and  C_50 
REMARK   17  A    between atoms: C_50  and  C_52 
REMARK   18  A    between atoms: C_52  and  N_53 
REMARK   19  A    between atoms: C_52  and  C_72 
REMARK       I    between atoms: N_53  and  C_55 
REMARK   20  A    between atoms: C_55  and  C_57 
REMARK   21  A    between atoms: C_57  and  N_58 
REMARK       I    between atoms: N_58  and  C_60 
REMARK   22  A    between atoms: C_60  and  C_62 
REMARK   23  A    between atoms: C_62  and  N_63 
REMARK   24  A    between atoms: C_62  and  C_67 
REMARK   25  A    between atoms: C_67  and  C_68 
REMARK   26  A    between atoms: C_68  and  C_69 
REMARK   27  A    between atoms: C_72  and  C_73 
REMARK   28  A    between atoms: C_42  and  C_43 
REMARK       I    between atoms: C_43  and  N_44 
ROOT
HETATM    1  C           0     -10.097  -0.952   7.557  0.00  0.00     0.241 C 
HETATM    2  O           0     -11.201  -0.814   8.094  0.00  0.00    -0.271 OA
HETATM    3  N           0      -9.750  -2.097   6.924  0.00  0.00    -0.346 N 
HETATM    4  H           0      -8.822  -2.184   6.527  0.00  0.00     0.163 HD
ENDROOT
BRANCH   3   5
HETATM    5  C           0     -10.746  -3.141   6.691  0.00  0.00     0.176 C 
BRANCH   5   6
HETATM    6  C           0     -11.199  -3.176   5.222  0.00  0.00     0.036 C 
BRANCH   6   7
HETATM    7  C           0      -9.994  -3.260   4.278  0.00  0.00     0.023 C 
BRANCH   7   8
HETATM    8  C           0      -9.778  -4.642   3.661  0.00  0.00     0.138 C 
BRANCH   8   9
HETATM    9  N           0     -10.481  -4.664   2.381  0.00  0.00    -0.227 N 
HETATM   10  C           0      -9.980  -5.020   1.202  0.00  0.00     0.665 C 
HETATM   11  N           0      -8.691  -5.358   1.057  0.00  0.00    -0.235 N 
HETATM   12  N           0     -10.818  -5.044   0.149  0.00  0.00    -0.235 N 
HETATM   13  H           0      -8.360  -5.762   0.193  0.00  0.00     0.174 HD
HETATM   14  H           0      -8.081  -5.418   1.856  0.00  0.00     0.174 HD
HETATM   15  H           0     -10.453  -5.066  -0.790  0.00  0.00     0.174 HD
HETATM   16  H           0     -11.747  -4.647   0.312  0.00  0.00     0.174 HD
HETATM   17  H           0     -11.468  -4.358   2.341  0.00  0.00     0.177 HD
ENDBRANCH   8   9
ENDBRANCH   7   8
ENDBRANCH   6   7
ENDBRANCH   5   6
BRANCH   5  18
HETATM   18  C           0     -10.385  -4.537   7.246  0.00  0.00     0.243 C 
HETATM   19  N           0     -11.219  -5.594   7.052  0.00  0.00    -0.337 N 
HETATM   20  C           0     -10.794  -6.937   7.483  0.00  0.00     0.179 C 
HETATM   21  C           0     -12.685  -5.552   6.866  0.00  0.00     0.127 C 
HETATM   22  C           0     -12.115  -7.686   7.809  0.00  0.00     0.037 C 
HETATM   23  C           0     -13.175  -6.577   7.894  0.00  0.00     0.022 C 
HETATM   24  O           0      -9.290  -4.658   7.803  0.00  0.00    -0.271 OA
BRANCH  20  25
HETATM   25  C           0      -9.974  -7.721   6.444  0.00  0.00     0.241 C 
HETATM   26  N           0      -8.814  -8.296   6.853  0.00  0.00    -0.344 N 
HETATM   27  H           0      -8.521  -8.207   7.822  0.00  0.00     0.163 HD
HETATM   28  O           0     -10.388  -7.785   5.284  0.00  0.00    -0.271 OA
BRANCH  26  29
HETATM   29  C           0      -7.880  -8.896   5.911  0.00  0.00     0.200 C 
BRANCH  29  30
HETATM   30  C           0      -8.258 -10.298   5.393  0.00  0.00     0.242 C 
HETATM   31  N           0      -8.857 -10.386   4.197  0.00  0.00    -0.354 N 
HETATM   32  H           0      -9.025  -9.579   3.601  0.00  0.00     0.162 HD
HETATM   33  O           0      -8.000 -11.284   6.100  0.00  0.00    -0.271 OA
BRANCH  31  34
HETATM   34  C           0      -9.220 -11.645   3.574  0.00  0.00     0.203 C 
BRANCH  34  35
HETATM   35  C           0     -10.748 -11.900   3.715  0.00  0.00     0.307 C 
HETATM   36  O           0     -11.440 -10.927   4.119  0.00  0.00    -0.186 OA
HETATM   37  O           0     -11.127 -13.055   3.406  0.00  0.00    -0.186 OA
ENDBRANCH  34  35
ENDBRANCH  31  34
ENDBRANCH  29  30
BRANCH  29  38
HETATM   38  C           0      -6.452  -8.935   6.495  0.00  0.00     0.199 C 
BRANCH  38  39
HETATM   39  O           0      -6.203  -7.879   7.404  0.00  0.00    -0.398 OA
HETATM   40  H           0      -6.155  -8.228   8.311  0.00  0.00     0.209 HD
ENDBRANCH  38  39
ENDBRANCH  29  38
ENDBRANCH  26  29
ENDBRANCH  20  25
ENDBRANCH   5  18
ENDBRANCH   3   5
BRANCH   1  41
HETATM   41  C           0      -9.068   0.199   7.537  0.00  0.00     0.185 C 
BRANCH  41  42
HETATM   42  C           0      -9.714   1.572   7.805  0.00  0.00     0.137 C 
BRANCH  42  43
HETATM   43  C           0     -10.101   2.355   6.551  0.00  0.00     0.217 C 
HETATM   44  N           0     -11.324   2.051   6.065  0.00  0.00    -0.370 N 
HETATM   45  H           0     -11.586   2.462   5.181  0.00  0.00     0.159 HD
HETATM   46  H           0     -11.910   1.307   6.464  0.00  0.00     0.159 HD
HETATM   47  O           0      -9.332   3.163   6.022  0.00  0.00    -0.274 OA
ENDBRANCH  42  43
ENDBRANCH  41  42
BRANCH  41  48
HETATM   48  N           0      -8.370   0.290   6.261  0.00  0.00    -0.346 N 
HETATM   49  H           0      -8.831   0.765   5.496  0.00  0.00     0.163 HD
HETATM   50  C           0      -7.185  -0.304   6.011  0.00  0.00     0.241 C 
HETATM   51  O           0      -6.591  -1.006   6.839  0.00  0.00    -0.271 OA
BRANCH  50  52
HETATM   52  C           0      -6.564  -0.047   4.625  0.00  0.00     0.177 C 
BRANCH  52  53
HETATM   53  N           0      -7.394  -0.560   3.540  0.00  0.00    -0.346 N 
HETATM   54  H           0      -8.401  -0.508   3.629  0.00  0.00     0.163 HD
HETATM   55  C           0      -6.858  -0.989   2.366  0.00  0.00     0.236 C 
HETATM   56  O           0      -5.651  -0.975   2.136  0.00  0.00    -0.272 OA
BRANCH  55  57
HETATM   57  C           0      -7.846  -1.481   1.300  0.00  0.00     0.225 C 
BRANCH  57  58
HETATM   58  N           0      -9.227  -1.056   1.519  0.00  0.00    -0.351 N 
HETATM   59  H           0      -9.391  -0.379   2.251  0.00  0.00     0.163 HD
HETATM   60  C           0     -10.167  -1.337   0.586  0.00  0.00     0.248 C 
HETATM   61  O           0      -9.904  -2.023  -0.407  0.00  0.00    -0.271 OA
BRANCH  60  62
HETATM   62  C           0     -11.605  -0.832   0.752  0.00  0.00     0.275 C 
BRANCH  62  63
HETATM   63  N           0     -12.644  -1.927   0.577  0.00  0.00    -0.066 N 
HETATM   64  H           0     -12.880  -2.390   1.462  0.00  0.00     0.275 HD
HETATM   65  H           0     -13.516  -1.605   0.146  0.00  0.00     0.275 HD
HETATM   66  H           0     -12.272  -2.653  -0.044  0.00  0.00     0.275 HD
ENDBRANCH  62  63
BRANCH  62  67
HETATM   67  C           0     -11.880  -0.090   2.070  0.00  0.00     0.053 C 
BRANCH  67  68
HETATM   68  C           0     -11.679   1.428   1.996  0.00  0.00     0.115 C 
BRANCH  68  69
HETATM   69  C           0     -10.370   1.985   2.592  0.00  0.00     0.172 C 
HETATM   70  O           0      -9.993   3.139   2.258  0.00  0.00    -0.648 OA
HETATM   71  O           0      -9.743   1.208   3.381  0.00  0.00    -0.648 OA
ENDBRANCH  68  69
ENDBRANCH  67  68
ENDBRANCH  62  67
ENDBRANCH  60  62
ENDBRANCH  57  58
ENDBRANCH  55  57
ENDBRANCH  52  53
BRANCH  52  72
HETATM   72  C           0      -6.299   1.458   4.388  0.00  0.00     0.038 C 
BRANCH  72  73
HETATM   73  C           0      -5.255   2.135   5.297  0.00  0.00    -0.020 C 
HETATM   74  C           0      -4.122   2.798   4.501  0.00  0.00     0.009 C 
HETATM   75  C           0      -5.961   3.158   6.201  0.00  0.00     0.009 C 
ENDBRANCH  72  73
ENDBRANCH  52  72
ENDBRANCH  50  52
ENDBRANCH  41  48
ENDBRANCH   1  41
TORSDOF 28
ENDMDL
MODEL 7
REMARK VINA RESULT:      -6.0      2.160     12.472
REMARK  28 active torsions:
REMARK  status: ('A' for Active; 'I' for Inactive)
REMARK       I    between atoms: C_1  and  N_3 
REMARK    1  A    between atoms: C_1  and  C_41 
REMARK    2  A    between atoms: N_3  and  C_5 
REMARK    3  A    between atoms: C_5  and  C_6 
REMARK    4  A    between atoms: C_5  and  C_18 
REMARK       I    between atoms: C_18  and  N_19 
REMARK    5  A    between atoms: C_20  and  C_25 
REMARK       I    between atoms: C_25  and  N_26 
REMARK    6  A    between atoms: N_26  and  C_29 
REMARK    7  A    between atoms: C_29  and  C_30 
REMARK    8  A    between atoms: C_29  and  C_38 
REMARK       I    between atoms: C_30  and  N_31 
REMARK    9  A    between atoms: N_31  and  C_34 
REMARK   10  A    between atoms: C_34  and  C_35 
REMARK   11  A    between atoms: C_38  and  O_39 
REMARK   12  A    between atoms: C_6  and  C_7 
REMARK   13  A    between atoms: C_7  and  C_8 
REMARK   14  A    between atoms: C_8  and  N_9 
REMARK       I    between atoms: N_9  and  C_10 
REMARK       I    between atoms: C_10  and  N_12 
REMARK   15  A    between atoms: C_41  and  C_42 
REMARK   16  A    between atoms: C_41  and  N_48 
REMARK       I    between atoms: N_48  and  C_50 
REMARK   17  A    between atoms: C_50  and  C_52 
REMARK   18  A    between atoms: C_52  and  N_53 
REMARK   19  A    between atoms: C_52  and  C_72 
REMARK       I    between atoms: N_53  and  C_55 
REMARK   20  A    between atoms: C_55  and  C_57 
REMARK   21  A    between atoms: C_57  and  N_58 
REMARK       I    between atoms: N_58  and  C_60 
REMARK   22  A    between atoms: C_60  and  C_62 
REMARK   23  A    between atoms: C_62  and  N_63 
REMARK   24  A    between atoms: C_62  and  C_67 
REMARK   25  A    between atoms: C_67  and  C_68 
REMARK   26  A    between atoms: C_68  and  C_69 
REMARK   27  A    between atoms: C_72  and  C_73 
REMARK   28  A    between atoms: C_42  and  C_43 
REMARK       I    between atoms: C_43  and  N_44 
ROOT
HETATM    1  C           0     -10.080  -7.773   4.809  0.00  0.00     0.241 C 
HETATM    2  O           0     -10.483  -7.729   5.977  0.00  0.00    -0.271 OA
HETATM    3  N           0      -9.515  -8.889   4.291  0.00  0.00    -0.346 N 
HETATM    4  H           0      -9.165  -8.873   3.340  0.00  0.00     0.163 HD
ENDROOT
BRANCH   3   5
HETATM    5  C           0      -9.539 -10.143   5.041  0.00  0.00     0.176 C 
BRANCH   5   6
HETATM    6  C           0     -10.522 -11.153   4.427  0.00  0.00     0.036 C 
BRANCH   6   7
HETATM    7  C           0     -10.725 -10.883   2.931  0.00  0.00     0.023 C 
BRANCH   7   8
HETATM    8  C           0     -10.629 -12.129   2.051  0.00  0.00     0.138 C 
BRANCH   8   9
HETATM    9  N           0      -9.772 -13.089   2.742  0.00  0.00    -0.227 N 
HETATM   10  C           0      -9.789 -14.412   2.609  0.00  0.00     0.665 C 
HETATM   11  N           0     -10.683 -15.031   1.826  0.00  0.00    -0.235 N 
HETATM   12  N           0      -8.862 -15.118   3.284  0.00  0.00    -0.235 N 
HETATM   13  H           0     -10.594 -16.015   1.623  0.00  0.00     0.174 HD
HETATM   14  H           0     -11.326 -14.501   1.259  0.00  0.00     0.174 HD
HETATM   15  H           0      -8.976 -16.111   3.414  0.00  0.00     0.174 HD
HETATM   16  H           0      -8.306 -14.589   3.959  0.00  0.00     0.174 HD
HETATM   17  H           0      -9.081 -12.746   3.432  0.00  0.00     0.177 HD
ENDBRANCH   8   9
ENDBRANCH   7   8
ENDBRANCH   6   7
ENDBRANCH   5   6
BRANCH   5  18
HETATM   18  C           0      -8.155 -10.756   5.349  0.00  0.00     0.243 C 
HETATM   19  N           0      -7.519 -10.470   6.517  0.00  0.00    -0.337 N 
HETATM   20  C           0      -6.260 -11.164   6.840  0.00  0.00     0.179 C 
HETATM   21  C           0      -7.657  -9.245   7.333  0.00  0.00     0.127 C 
HETATM   22  C           0      -5.475 -10.166   7.736  0.00  0.00     0.037 C 
HETATM   23  C           0      -6.199  -8.824   7.542  0.00  0.00     0.022 C 
HETATM   24  O           0      -7.696 -11.558   4.530  0.00  0.00    -0.271 OA
BRANCH  20  25
HETATM   25  C           0      -6.430 -12.513   7.560  0.00  0.00     0.241 C 
HETATM   26  N           0      -6.545 -13.630   6.796  0.00  0.00    -0.344 N 
HETATM   27  H           0      -6.507 -13.555   5.783  0.00  0.00     0.163 HD
HETATM   28  O           0      -6.470 -12.529   8.792  0.00  0.00    -0.271 OA
BRANCH  26  29
HETATM   29  C           0      -6.893 -14.921   7.371  0.00  0.00     0.200 C 
BRANCH  29  30
HETATM   30  C           0      -6.253 -16.150   6.697  0.00  0.00     0.242 C 
HETATM   31  N           0      -7.042 -17.196   6.415  0.00  0.00    -0.354 N 
HETATM   32  H           0      -8.046 -17.192   6.580  0.00  0.00     0.162 HD
HETATM   33  O           0      -5.038 -16.126   6.447  0.00  0.00    -0.271 OA
BRANCH  31  34
HETATM   34  C           0      -6.576 -18.392   5.739  0.00  0.00     0.203 C 
BRANCH  34  35
HETATM   35  C           0      -6.823 -18.280   4.207  0.00  0.00     0.307 C 
HETATM   36  O           0      -7.969 -17.889   3.854  0.00  0.00    -0.186 OA
HETATM   37  O           0      -5.846 -18.592   3.485  0.00  0.00    -0.186 OA
ENDBRANCH  34  35
ENDBRANCH  31  34
ENDBRANCH  29  30
BRANCH  29  38
HETATM   38  C           0      -8.424 -15.108   7.428  0.00  0.00     0.199 C 
BRANCH  38  39
HETATM   39  O           0      -9.035 -15.021   6.154  0.00  0.00    -0.398 OA
HETATM   40  H           0      -8.624 -15.660   5.547  0.00  0.00     0.209 HD
ENDBRANCH  38  39
ENDBRANCH  29  38
ENDBRANCH  26  29
ENDBRANCH  20  25
ENDBRANCH   5  18
ENDBRANCH   3   5
BRANCH   1  41
HETATM   41  C           0     -10.244  -6.566   3.862  0.00  0.00     0.185 C 
BRANCH  41  42
HETATM   42  C           0      -9.440  -6.726   2.557  0.00  0.00     0.137 C 
BRANCH  42  43
HETATM   43  C           0      -9.267  -5.441   1.747  0.00  0.00     0.217 C 
HETATM   44  N           0     -10.040  -5.378   0.641  0.00  0.00    -0.370 N 
HETATM   45  H           0      -9.890  -4.599   0.015  0.00  0.00     0.159 HD
HETATM   46  H           0     -10.637  -6.157   0.336  0.00  0.00     0.159 HD
HETATM   47  O           0      -8.459  -4.568   2.073  0.00  0.00    -0.274 OA
ENDBRANCH  42  43
ENDBRANCH  41  42
BRANCH  41  48
HETATM   48  N           0      -9.816  -5.318   4.482  0.00  0.00    -0.346 N 
HETATM   49  H           0      -8.824  -5.151   4.589  0.00  0.00     0.163 HD
HETATM   50  C           0     -10.667  -4.413   5.009  0.00  0.00     0.241 C 
HETATM   51  O           0     -11.894  -4.572   5.037  0.00  0.00    -0.271 OA
BRANCH  50  52
HETATM   52  C           0     -10.040  -3.122   5.568  0.00  0.00     0.177 C 
BRANCH  52  53
HETATM   53  N           0      -9.349  -2.349   4.540  0.00  0.00    -0.346 N 
HETATM   54  H           0      -8.339  -2.291   4.569  0.00  0.00     0.163 HD
HETATM   55  C           0     -10.009  -1.814   3.478  0.00  0.00     0.236 C 
HETATM   56  O           0     -11.219  -1.940   3.308  0.00  0.00    -0.272 OA
BRANCH  55  57
HETATM   57  C           0      -9.157  -1.046   2.458  0.00  0.00     0.225 C 
BRANCH  57  58
HETATM   58  N           0      -8.093  -0.238   3.051  0.00  0.00    -0.351 N 
HETATM   59  H           0      -7.169  -0.645   3.085  0.00  0.00     0.163 HD
HETATM   60  C           0      -8.297   1.085   3.254  0.00  0.00     0.248 C 
HETATM   61  O           0      -9.394   1.610   3.035  0.00  0.00    -0.271 OA
BRANCH  60  62
HETATM   62  C           0      -7.171   1.971   3.799  0.00  0.00     0.275 C 
BRANCH  62  63
HETATM   63  N           0      -7.645   2.955   4.856  0.00  0.00    -0.066 N 
HETATM   64  H           0      -7.081   3.811   4.878  0.00  0.00     0.275 HD
HETATM   65  H           0      -8.629   3.225   4.758  0.00  0.00     0.275 HD
HETATM   66  H           0      -7.561   2.525   5.783  0.00  0.00     0.275 HD
ENDBRANCH  62  63
BRANCH  62  67
HETATM   67  C           0      -5.953   1.206   4.342  0.00  0.00     0.053 C 
BRANCH  67  68
HETATM   68  C           0      -5.953   1.012   5.863  0.00  0.00     0.115 C 
BRANCH  68  69
HETATM   69  C           0      -6.807  -0.147   6.415  0.00  0.00     0.172 C 
HETATM   70  O           0      -8.045  -0.153   6.186  0.00  0.00    -0.648 OA
HETATM   71  O           0      -6.182  -1.023   7.096  0.00  0.00    -0.648 OA
ENDBRANCH  68  69
ENDBRANCH  67  68
ENDBRANCH  62  67
ENDBRANCH  60  62
ENDBRANCH  57  58
ENDBRANCH  55  57
ENDBRANCH  52  53
BRANCH  52  72
HETATM   72  C           0     -11.096  -2.222   6.249  0.00  0.00     0.038 C 
BRANCH  72  73
HETATM   73  C           0     -11.199  -2.306   7.784  0.00  0.00    -0.020 C 
HETATM   74  C           0      -9.836  -2.157   8.475  0.00  0.00     0.009 C 
HETATM   75  C           0     -12.186  -1.238   8.283  0.00  0.00     0.009 C 
ENDBRANCH  72  73
ENDBRANCH  52  72
ENDBRANCH  50  52
ENDBRANCH  41  48
ENDBRANCH   1  41
TORSDOF 28
ENDMDL
MODEL 8
REMARK VINA RESULT:      -5.8      3.051      9.292
REMARK  28 active torsions:
REMARK  status: ('A' for Active; 'I' for Inactive)
REMARK       I    between atoms: C_1  and  N_3 
REMARK    1  A    between atoms: C_1  and  C_41 
REMARK    2  A    between atoms: N_3  and  C_5 
REMARK    3  A    between atoms: C_5  and  C_6 
REMARK    4  A    between atoms: C_5  and  C_18 
REMARK       I    between atoms: C_18  and  N_19 
REMARK    5  A    between atoms: C_20  and  C_25 
REMARK       I    between atoms: C_25  and  N_26 
REMARK    6  A    between atoms: N_26  and  C_29 
REMARK    7  A    between atoms: C_29  and  C_30 
REMARK    8  A    between atoms: C_29  and  C_38 
REMARK       I    between atoms: C_30  and  N_31 
REMARK    9  A    between atoms: N_31  and  C_34 
REMARK   10  A    between atoms: C_34  and  C_35 
REMARK   11  A    between atoms: C_38  and  O_39 
REMARK   12  A    between atoms: C_6  and  C_7 
REMARK   13  A    between atoms: C_7  and  C_8 
REMARK   14  A    between atoms: C_8  and  N_9 
REMARK       I    between atoms: N_9  and  C_10 
REMARK       I    between atoms: C_10  and  N_12 
REMARK   15  A    between atoms: C_41  and  C_42 
REMARK   16  A    between atoms: C_41  and  N_48 
REMARK       I    between atoms: N_48  and  C_50 
REMARK   17  A    between atoms: C_50  and  C_52 
REMARK   18  A    between atoms: C_52  and  N_53 
REMARK   19  A    between atoms: C_52  and  C_72 
REMARK       I    between atoms: N_53  and  C_55 
REMARK   20  A    between atoms: C_55  and  C_57 
REMARK   21  A    between atoms: C_57  and  N_58 
REMARK       I    between atoms: N_58  and  C_60 
REMARK   22  A    between atoms: C_60  and  C_62 
REMARK   23  A    between atoms: C_62  and  N_63 
REMARK   24  A    between atoms: C_62  and  C_67 
REMARK   25  A    between atoms: C_67  and  C_68 
REMARK   26  A    between atoms: C_68  and  C_69 
REMARK   27  A    between atoms: C_72  and  C_73 
REMARK   28  A    between atoms: C_42  and  C_43 
REMARK       I    between atoms: C_43  and  N_44 
ROOT
HETATM    1  C           0      -6.458  -0.165   4.841  0.00  0.00     0.241 C 
HETATM    2  O           0      -5.387  -0.661   5.210  0.00  0.00    -0.271 OA
HETATM    3  N           0      -7.507  -0.023   5.685  0.00  0.00    -0.346 N 
HETATM    4  H           0      -8.379   0.355   5.335  0.00  0.00     0.163 HD
ENDROOT
BRANCH   3   5
HETATM    5  C           0      -7.342  -0.278   7.115  0.00  0.00     0.176 C 
BRANCH   5   6
HETATM    6  C           0      -7.278   1.030   7.921  0.00  0.00     0.036 C 
BRANCH   6   7
HETATM    7  C           0      -6.064   1.039   8.857  0.00  0.00     0.023 C 
BRANCH   7   8
HETATM    8  C           0      -5.083   2.182   8.600  0.00  0.00     0.138 C 
BRANCH   8   9
HETATM    9  N           0      -3.829   1.589   8.144  0.00  0.00    -0.227 N 
HETATM   10  C           0      -3.361   1.571   6.899  0.00  0.00     0.665 C 
HETATM   11  N           0      -4.064   2.074   5.875  0.00  0.00    -0.235 N 
HETATM   12  N           0      -2.143   1.036   6.699  0.00  0.00    -0.235 N 
HETATM   13  H           0      -3.641   2.183   4.966  0.00  0.00     0.174 HD
HETATM   14  H           0      -4.941   2.545   6.033  0.00  0.00     0.174 HD
HETATM   15  H           0      -1.848   0.778   5.769  0.00  0.00     0.174 HD
HETATM   16  H           0      -1.730   0.557   7.502  0.00  0.00     0.174 HD
HETATM   17  H           0      -3.221   1.104   8.827  0.00  0.00     0.177 HD
ENDBRANCH   8   9
ENDBRANCH   7   8
ENDBRANCH   6   7
ENDBRANCH   5   6
BRANCH   5  18
HETATM   18  C           0      -8.315  -1.315   7.719  0.00  0.00     0.243 C 
HETATM   19  N           0      -9.607  -1.375   7.298  0.00  0.00    -0.337 N 
HETATM   20  C           0     -10.479  -2.451   7.800  0.00  0.00     0.179 C 
HETATM   21  C           0     -10.418  -0.270   6.743  0.00  0.00     0.127 C 
HETATM   22  C           0     -11.912  -1.850   7.763  0.00  0.00     0.037 C 
HETATM   23  C           0     -11.691  -0.339   7.593  0.00  0.00     0.022 C 
HETATM   24  O           0      -7.852  -2.116   8.536  0.00  0.00    -0.271 OA
BRANCH  20  25
HETATM   25  C           0     -10.424  -3.759   6.992  0.00  0.00     0.241 C 
HETATM   26  N           0     -10.813  -4.903   7.610  0.00  0.00    -0.344 N 
HETATM   27  H           0     -11.137  -4.872   8.573  0.00  0.00     0.163 HD
HETATM   28  O           0     -10.018  -3.723   5.828  0.00  0.00    -0.271 OA
BRANCH  26  29
HETATM   29  C           0     -10.623  -6.210   6.997  0.00  0.00     0.200 C 
BRANCH  29  30
HETATM   30  C           0     -11.909  -6.948   6.579  0.00  0.00     0.242 C 
HETATM   31  N           0     -12.017  -8.248   6.886  0.00  0.00    -0.354 N 
HETATM   32  H           0     -11.314  -8.750   7.423  0.00  0.00     0.162 HD
HETATM   33  O           0     -12.788  -6.316   5.972  0.00  0.00    -0.271 OA
BRANCH  31  34
HETATM   34  C           0     -13.194  -9.045   6.592  0.00  0.00     0.203 C 
BRANCH  34  35
HETATM   35  C           0     -12.795 -10.342   5.832  0.00  0.00     0.307 C 
HETATM   36  O           0     -11.571 -10.644   5.848  0.00  0.00    -0.186 OA
HETATM   37  O           0     -13.744 -10.951   5.282  0.00  0.00    -0.186 OA
ENDBRANCH  34  35
ENDBRANCH  31  34
ENDBRANCH  29  30
BRANCH  29  38
HETATM   38  C           0      -9.777  -7.130   7.904  0.00  0.00     0.199 C 
BRANCH  38  39
HETATM   39  O           0      -8.385  -6.957   7.714  0.00  0.00    -0.398 OA
HETATM   40  H           0      -8.116  -7.355   6.869  0.00  0.00     0.209 HD
ENDBRANCH  38  39
ENDBRANCH  29  38
ENDBRANCH  26  29
ENDBRANCH  20  25
ENDBRANCH   5  18
ENDBRANCH   3   5
BRANCH   1  41
HETATM   41  C           0      -6.639   0.366   3.403  0.00  0.00     0.185 C 
BRANCH  41  42
HETATM   42  C           0      -7.689   1.490   3.317  0.00  0.00     0.137 C 
BRANCH  42  43
HETATM   43  C           0      -7.411   2.698   4.212  0.00  0.00     0.217 C 
HETATM   44  N           0      -8.492   3.147   4.885  0.00  0.00    -0.370 N 
HETATM   45  H           0      -8.389   4.004   5.409  0.00  0.00     0.159 HD
HETATM   46  H           0      -9.432   2.754   4.750  0.00  0.00     0.159 HD
HETATM   47  O           0      -6.296   3.224   4.271  0.00  0.00    -0.274 OA
ENDBRANCH  42  43
ENDBRANCH  41  42
BRANCH  41  48
HETATM   48  N           0      -7.051  -0.683   2.478  0.00  0.00    -0.346 N 
HETATM   49  H           0      -6.542  -0.782   1.609  0.00  0.00     0.163 HD
HETATM   50  C           0      -8.132  -1.468   2.669  0.00  0.00     0.241 C 
HETATM   51  O           0      -8.891  -1.353   3.639  0.00  0.00    -0.271 OA
BRANCH  50  52
HETATM   52  C           0      -8.378  -2.566   1.617  0.00  0.00     0.177 C 
BRANCH  52  53
HETATM   53  N           0      -9.007  -3.753   2.189  0.00  0.00    -0.346 N 
HETATM   54  H           0      -9.908  -3.658   2.640  0.00  0.00     0.163 HD
HETATM   55  C           0      -8.479  -4.996   2.024  0.00  0.00     0.236 C 
HETATM   56  O           0      -7.449  -5.207   1.389  0.00  0.00    -0.272 OA
BRANCH  55  57
HETATM   57  C           0      -9.255  -6.159   2.657  0.00  0.00     0.225 C 
BRANCH  57  58
HETATM   58  N           0      -8.409  -7.190   3.255  0.00  0.00    -0.351 N 
HETATM   59  H           0      -7.412  -7.028   3.252  0.00  0.00     0.163 HD
HETATM   60  C           0      -8.972  -8.148   4.028  0.00  0.00     0.248 C 
HETATM   61  O           0     -10.198  -8.226   4.168  0.00  0.00    -0.271 OA
BRANCH  60  62
HETATM   62  C           0      -8.100  -9.193   4.733  0.00  0.00     0.275 C 
BRANCH  62  63
HETATM   63  N           0      -8.727  -9.729   6.010  0.00  0.00    -0.066 N 
HETATM   64  H           0      -9.634 -10.179   5.844  0.00  0.00     0.275 HD
HETATM   65  H           0      -8.132 -10.391   6.517  0.00  0.00     0.275 HD
HETATM   66  H           0      -8.900  -8.952   6.656  0.00  0.00     0.275 HD
ENDBRANCH  62  63
BRANCH  62  67
HETATM   67  C           0      -7.675 -10.378   3.852  0.00  0.00     0.053 C 
BRANCH  67  68
HETATM   68  C           0      -8.762 -11.440   3.650  0.00  0.00     0.115 C 
BRANCH  68  69
HETATM   69  C           0      -8.545 -12.799   4.345  0.00  0.00     0.172 C 
HETATM   70  O           0      -8.158 -12.813   5.543  0.00  0.00    -0.648 OA
HETATM   71  O           0      -8.758 -13.830   3.630  0.00  0.00    -0.648 OA
ENDBRANCH  68  69
ENDBRANCH  67  68
ENDBRANCH  62  67
ENDBRANCH  60  62
ENDBRANCH  57  58
ENDBRANCH  55  57
ENDBRANCH  52  53
BRANCH  52  72
HETATM   72  C           0      -9.246  -2.051   0.446  0.00  0.00     0.038 C 
BRANCH  72  73
HETATM   73  C           0     -10.763  -1.941   0.696  0.00  0.00    -0.020 C 
HETATM   74  C           0     -11.272  -0.496   0.601  0.00  0.00     0.009 C 
HETATM   75  C           0     -11.504  -2.850  -0.298  0.00  0.00     0.009 C 
ENDBRANCH  72  73
ENDBRANCH  52  72
ENDBRANCH  50  52
ENDBRANCH  41  48
ENDBRANCH   1  41
TORSDOF 28
ENDMDL
MODEL 9
REMARK VINA RESULT:      -5.8      6.827     16.008
REMARK  28 active torsions:
REMARK  status: ('A' for Active; 'I' for Inactive)
REMARK       I    between atoms: C_1  and  N_3 
REMARK    1  A    between atoms: C_1  and  C_41 
REMARK    2  A    between atoms: N_3  and  C_5 
REMARK    3  A    between atoms: C_5  and  C_6 
REMARK    4  A    between atoms: C_5  and  C_18 
REMARK       I    between atoms: C_18  and  N_19 
REMARK    5  A    between atoms: C_20  and  C_25 
REMARK       I    between atoms: C_25  and  N_26 
REMARK    6  A    between atoms: N_26  and  C_29 
REMARK    7  A    between atoms: C_29  and  C_30 
REMARK    8  A    between atoms: C_29  and  C_38 
REMARK       I    between atoms: C_30  and  N_31 
REMARK    9  A    between atoms: N_31  and  C_34 
REMARK   10  A    between atoms: C_34  and  C_35 
REMARK   11  A    between atoms: C_38  and  O_39 
REMARK   12  A    between atoms: C_6  and  C_7 
REMARK   13  A    between atoms: C_7  and  C_8 
REMARK   14  A    between atoms: C_8  and  N_9 
REMARK       I    between atoms: N_9  and  C_10 
REMARK       I    between atoms: C_10  and  N_12 
REMARK   15  A    between atoms: C_41  and  C_42 
REMARK   16  A    between atoms: C_41  and  N_48 
REMARK       I    between atoms: N_48  and  C_50 
REMARK   17  A    between atoms: C_50  and  C_52 
REMARK   18  A    between atoms: C_52  and  N_53 
REMARK   19  A    between atoms: C_52  and  C_72 
REMARK       I    between atoms: N_53  and  C_55 
REMARK   20  A    between atoms: C_55  and  C_57 
REMARK   21  A    between atoms: C_57  and  N_58 
REMARK       I    between atoms: N_58  and  C_60 
REMARK   22  A    between atoms: C_60  and  C_62 
REMARK   23  A    between atoms: C_62  and  N_63 
REMARK   24  A    between atoms: C_62  and  C_67 
REMARK   25  A    between atoms: C_67  and  C_68 
REMARK   26  A    between atoms: C_68  and  C_69 
REMARK   27  A    between atoms: C_72  and  C_73 
REMARK   28  A    between atoms: C_42  and  C_43 
REMARK       I    between atoms: C_43  and  N_44 
ROOT
HETATM    1  C           0      -5.850 -21.095   3.442  0.00  0.00     0.241 C 
HETATM    2  O           0      -6.545 -21.580   4.341  0.00  0.00    -0.271 OA
HETATM    3  N           0      -5.333 -21.857   2.450  0.00  0.00    -0.346 N 
HETATM    4  H           0      -4.739 -21.428   1.750  0.00  0.00     0.163 HD
ENDROOT
BRANCH   3   5
HETATM    5  C           0      -5.741 -23.254   2.305  0.00  0.00     0.176 C 
BRANCH   5   6
HETATM    6  C           0      -6.326 -23.532   0.911  0.00  0.00     0.036 C 
BRANCH   6   7
HETATM    7  C           0      -7.663 -22.805   0.721  0.00  0.00     0.023 C 
BRANCH   7   8
HETATM    8  C           0      -8.648 -22.996   1.874  0.00  0.00     0.138 C 
BRANCH   8   9
HETATM    9  N           0      -9.797 -22.132   1.615  0.00  0.00    -0.227 N 
HETATM   10  C           0     -10.043 -20.946   2.166  0.00  0.00     0.665 C 
HETATM   11  N           0      -9.243 -20.427   3.107  0.00  0.00    -0.235 N 
HETATM   12  N           0     -11.124 -20.271   1.735  0.00  0.00    -0.235 N 
HETATM   13  H           0      -9.359 -19.472   3.411  0.00  0.00     0.174 HD
HETATM   14  H           0      -8.391 -20.893   3.375  0.00  0.00     0.174 HD
HETATM   15  H           0     -11.490 -19.501   2.274  0.00  0.00     0.174 HD
HETATM   16  H           0     -11.753 -20.788   1.117  0.00  0.00     0.174 HD
HETATM   17  H           0     -10.530 -22.447   0.957  0.00  0.00     0.177 HD
ENDBRANCH   8   9
ENDBRANCH   7   8
ENDBRANCH   6   7
ENDBRANCH   5   6
BRANCH   5  18
HETATM   18  C           0      -4.689 -24.298   2.739  0.00  0.00     0.243 C 
HETATM   19  N           0      -3.383 -24.149   2.389  0.00  0.00    -0.337 N 
HETATM   20  C           0      -2.382 -25.090   2.920  0.00  0.00     0.179 C 
HETATM   21  C           0      -2.851 -23.444   1.203  0.00  0.00     0.127 C 
HETATM   22  C           0      -1.264 -25.132   1.840  0.00  0.00     0.037 C 
HETATM   23  C           0      -1.903 -24.487   0.600  0.00  0.00     0.022 C 
HETATM   24  O           0      -5.073 -25.220   3.465  0.00  0.00    -0.271 OA
BRANCH  20  25
HETATM   25  C           0      -1.793 -24.708   4.289  0.00  0.00     0.241 C 
HETATM   26  N           0      -0.728 -23.867   4.309  0.00  0.00    -0.344 N 
HETATM   27  H           0      -0.354 -23.504   3.436  0.00  0.00     0.163 HD
HETATM   28  O           0      -2.296 -25.188   5.308  0.00  0.00    -0.271 OA
BRANCH  26  29
HETATM   29  C           0       0.012 -23.594   5.533  0.00  0.00     0.200 C 
BRANCH  29  30
HETATM   30  C           0       0.439 -22.128   5.746  0.00  0.00     0.242 C 
HETATM   31  N           0       0.668 -21.715   7.000  0.00  0.00    -0.354 N 
HETATM   32  H           0       0.622 -22.337   7.804  0.00  0.00     0.162 HD
HETATM   33  O           0       0.549 -21.390   4.754  0.00  0.00    -0.271 OA
BRANCH  31  34
HETATM   34  C           0       1.122 -20.378   7.332  0.00  0.00     0.203 C 
BRANCH  34  35
HETATM   35  C           0       2.674 -20.300   7.266  0.00  0.00     0.307 C 
HETATM   36  O           0       3.303 -20.914   8.170  0.00  0.00    -0.186 OA
HETATM   37  O           0       3.134 -19.629   6.310  0.00  0.00    -0.186 OA
ENDBRANCH  34  35
ENDBRANCH  31  34
ENDBRANCH  29  30
BRANCH  29  38
HETATM   38  C           0       1.249 -24.510   5.648  0.00  0.00     0.199 C 
BRANCH  38  39
HETATM   39  O           0       2.466 -23.787   5.676  0.00  0.00    -0.398 OA
HETATM   40  H           0       2.341 -22.949   6.153  0.00  0.00     0.209 HD
ENDBRANCH  38  39
ENDBRANCH  29  38
ENDBRANCH  26  29
ENDBRANCH  20  25
ENDBRANCH   5  18
ENDBRANCH   3   5
BRANCH   1  41
HETATM   41  C           0      -5.574 -19.578   3.376  0.00  0.00     0.185 C 
BRANCH  41  42
HETATM   42  C           0      -4.107 -19.259   3.032  0.00  0.00     0.137 C 
BRANCH  42  43
HETATM   43  C           0      -3.133 -19.376   4.204  0.00  0.00     0.217 C 
HETATM   44  N           0      -2.366 -20.487   4.176  0.00  0.00    -0.370 N 
HETATM   45  H           0      -1.780 -20.666   4.979  0.00  0.00     0.159 HD
HETATM   46  H           0      -2.480 -21.222   3.467  0.00  0.00     0.159 HD
HETATM   47  O           0      -3.093 -18.535   5.106  0.00  0.00    -0.274 OA
ENDBRANCH  42  43
ENDBRANCH  41  42
BRANCH  41  48
HETATM   48  N           0      -5.880 -18.908   4.634  0.00  0.00    -0.346 N 
HETATM   49  H           0      -5.357 -19.177   5.458  0.00  0.00     0.163 HD
HETATM   50  C           0      -6.882 -18.018   4.785  0.00  0.00     0.241 C 
HETATM   51  O           0      -7.655 -17.705   3.872  0.00  0.00    -0.271 OA
BRANCH  50  52
HETATM   52  C           0      -7.017 -17.363   6.173  0.00  0.00     0.177 C 
BRANCH  52  53
HETATM   53  N           0      -6.301 -16.094   6.261  0.00  0.00    -0.346 N 
HETATM   54  H           0      -6.699 -15.278   5.813  0.00  0.00     0.163 HD
HETATM   55  C           0      -5.188 -15.949   7.029  0.00  0.00     0.236 C 
HETATM   56  O           0      -4.710 -16.863   7.696  0.00  0.00    -0.272 OA
BRANCH  55  57
HETATM   57  C           0      -4.548 -14.554   7.051  0.00  0.00     0.225 C 
BRANCH  57  58
HETATM   58  N           0      -5.498 -13.455   6.894  0.00  0.00    -0.351 N 
HETATM   59  H           0      -6.267 -13.597   6.254  0.00  0.00     0.163 HD
HETATM   60  C           0      -5.496 -12.440   7.790  0.00  0.00     0.248 C 
HETATM   61  O           0      -4.649 -12.373   8.687  0.00  0.00    -0.271 OA
BRANCH  60  62
HETATM   62  C           0      -6.535 -11.316   7.697  0.00  0.00     0.275 C 
BRANCH  62  63
HETATM   63  N           0      -6.221 -10.138   8.604  0.00  0.00    -0.066 N 
HETATM   64  H           0      -6.748  -9.295   8.351  0.00  0.00     0.275 HD
HETATM   65  H           0      -6.381 -10.327   9.598  0.00  0.00     0.275 HD
HETATM   66  H           0      -5.227  -9.898   8.518  0.00  0.00     0.275 HD
ENDBRANCH  62  63
BRANCH  62  67
HETATM   67  C           0      -6.794 -10.794   6.274  0.00  0.00     0.053 C 
BRANCH  67  68
HETATM   68  C           0      -8.158 -11.185   5.694  0.00  0.00     0.115 C 
BRANCH  68  69
HETATM   69  C           0      -8.211 -12.474   4.851  0.00  0.00     0.172 C 
HETATM   70  O           0      -8.105 -13.586   5.432  0.00  0.00    -0.648 OA
HETATM   71  O           0      -8.341 -12.312   3.594  0.00  0.00    -0.648 OA
ENDBRANCH  68  69
ENDBRANCH  67  68
ENDBRANCH  62  67
ENDBRANCH  60  62
ENDBRANCH  57  58
ENDBRANCH  55  57
ENDBRANCH  52  53
BRANCH  52  72
HETATM   72  C           0      -8.498 -17.134   6.555  0.00  0.00     0.038 C 
BRANCH  72  73
HETATM   73  C           0      -8.986 -17.771   7.870  0.00  0.00    -0.020 C 
HETATM   74  C           0     -10.280 -18.578   7.689  0.00  0.00     0.009 C 
HETATM   75  C           0      -7.868 -18.653   8.449  0.00  0.00     0.009 C 
ENDBRANCH  72  73
ENDBRANCH  52  72
ENDBRANCH  50  52
ENDBRANCH  41  48
ENDBRANCH   1  41
TORSDOF 28
ENDMDL
