MODEL 1
REMARK VINA RESULT:      -5.3      0.000      0.000
REMARK  28 active torsions:
REMARK  status: ('A' for Active; 'I' for Inactive)
REMARK       I    between atoms: C_1  and  N_3 
REMARK    1  A    between atoms: C_1  and  C_41 
REMARK    2  A    between atoms: N_3  and  C_5 
REMARK    3  A    between atoms: C_5  and  C_6 
REMARK    4  A    between atoms: C_5  and  C_18 
REMARK       I    between atoms: C_18  and  N_19 
REMARK    5  A    between atoms: C_20  and  C_25 
REMARK       I    between atoms: C_25  and  N_26 
REMARK    6  A    between atoms: N_26  and  C_29 
REMARK    7  A    between atoms: C_29  and  C_30 
REMARK    8  A    between atoms: C_29  and  C_38 
REMARK       I    between atoms: C_30  and  N_31 
REMARK    9  A    between atoms: N_31  and  C_34 
REMARK   10  A    between atoms: C_34  and  C_35 
REMARK   11  A    between atoms: C_38  and  O_39 
REMARK   12  A    between atoms: C_6  and  C_7 
REMARK   13  A    between atoms: C_7  and  C_8 
REMARK   14  A    between atoms: C_8  and  N_9 
REMARK       I    between atoms: N_9  and  C_10 
REMARK       I    between atoms: C_10  and  N_12 
REMARK   15  A    between atoms: C_41  and  C_42 
REMARK   16  A    between atoms: C_41  and  N_48 
REMARK       I    between atoms: N_48  and  C_50 
REMARK   17  A    between atoms: C_50  and  C_52 
REMARK   18  A    between atoms: C_52  and  N_53 
REMARK   19  A    between atoms: C_52  and  C_72 
REMARK       I    between atoms: N_53  and  C_55 
REMARK   20  A    between atoms: C_55  and  C_57 
REMARK   21  A    between atoms: C_57  and  N_58 
REMARK       I    between atoms: N_58  and  C_60 
REMARK   22  A    between atoms: C_60  and  C_62 
REMARK   23  A    between atoms: C_62  and  N_63 
REMARK   24  A    between atoms: C_62  and  C_67 
REMARK   25  A    between atoms: C_67  and  C_68 
REMARK   26  A    between atoms: C_68  and  C_69 
REMARK   27  A    between atoms: C_72  and  C_73 
REMARK   28  A    between atoms: C_42  and  C_43 
REMARK       I    between atoms: C_43  and  N_44 
ROOT
HETATM    1  C           0      13.544 -17.999  -0.558  0.00  0.00     0.241 C 
HETATM    2  O           0      13.958 -18.392  -1.654  0.00  0.00    -0.271 OA
HETATM    3  N           0      14.136 -16.976   0.103  0.00  0.00    -0.346 N 
HETATM    4  H           0      13.789 -16.706   1.016  0.00  0.00     0.163 HD
ENDROOT
BRANCH   3   5
HETATM    5  C           0      15.170 -16.177  -0.551  0.00  0.00     0.176 C 
BRANCH   5   6
HETATM    6  C           0      14.681 -14.750  -0.849  0.00  0.00     0.036 C 
BRANCH   6   7
HETATM    7  C           0      13.394 -14.438  -0.077  0.00  0.00     0.023 C 
BRANCH   7   8
HETATM    8  C           0      13.598 -13.541   1.145  0.00  0.00     0.138 C 
BRANCH   8   9
HETATM    9  N           0      15.002 -13.137   1.162  0.00  0.00    -0.227 N 
HETATM   10  C           0      15.626 -12.463   2.123  0.00  0.00     0.665 C 
HETATM   11  N           0      14.975 -12.014   3.205  0.00  0.00    -0.235 N 
HETATM   12  N           0      16.947 -12.253   1.981  0.00  0.00    -0.235 N 
HETATM   13  H           0      15.483 -11.633   3.989  0.00  0.00     0.174 HD
HETATM   14  H           0      14.003 -12.237   3.353  0.00  0.00     0.174 HD
HETATM   15  H           0      17.414 -11.555   2.540  0.00  0.00     0.174 HD
HETATM   16  H           0      17.342 -12.508   1.073  0.00  0.00     0.174 HD
HETATM   17  H           0      15.603 -13.362   0.350  0.00  0.00     0.177 HD
ENDBRANCH   8   9
ENDBRANCH   7   8
ENDBRANCH   6   7
ENDBRANCH   5   6
BRANCH   5  18
HETATM   18  C           0      16.560 -16.212   0.124  0.00  0.00     0.243 C 
HETATM   19  N           0      17.557 -16.982  -0.390  0.00  0.00    -0.337 N 
HETATM   20  C           0      18.905 -16.902   0.198  0.00  0.00     0.179 C 
HETATM   21  C           0      17.410 -18.224  -1.178  0.00  0.00     0.127 C 
HETATM   22  C           0      19.531 -18.302  -0.053  0.00  0.00     0.037 C 
HETATM   23  C           0      18.340 -19.193  -0.439  0.00  0.00     0.022 C 
HETATM   24  O           0      16.737 -15.468   1.092  0.00  0.00    -0.271 OA
BRANCH  20  25
HETATM   25  C           0      19.803 -15.798  -0.387  0.00  0.00     0.241 C 
HETATM   26  N           0      19.659 -14.539   0.099  0.00  0.00    -0.344 N 
HETATM   27  H           0      18.980 -14.355   0.833  0.00  0.00     0.163 HD
HETATM   28  O           0      20.604 -16.092  -1.278  0.00  0.00    -0.271 OA
BRANCH  26  29
HETATM   29  C           0      20.324 -13.398  -0.514  0.00  0.00     0.200 C 
BRANCH  29  30
HETATM   30  C           0      20.597 -12.201   0.417  0.00  0.00     0.242 C 
HETATM   31  N           0      21.677 -11.446   0.172  0.00  0.00    -0.354 N 
HETATM   32  H           0      22.290 -11.599  -0.626  0.00  0.00     0.162 HD
HETATM   33  O           0      19.814 -11.986   1.355  0.00  0.00    -0.271 OA
BRANCH  31  34
HETATM   34  C           0      22.019 -10.264   0.941  0.00  0.00     0.203 C 
BRANCH  34  35
HETATM   35  C           0      21.204  -9.037   0.442  0.00  0.00     0.307 C 
HETATM   36  O           0      21.089  -8.915  -0.808  0.00  0.00    -0.186 OA
HETATM   37  O           0      20.746  -8.298   1.346  0.00  0.00    -0.186 OA
ENDBRANCH  34  35
ENDBRANCH  31  34
ENDBRANCH  29  30
BRANCH  29  38
HETATM   38  C           0      19.556 -12.912  -1.762  0.00  0.00     0.199 C 
BRANCH  38  39
HETATM   39  O           0      19.603 -11.507  -1.922  0.00  0.00    -0.398 OA
HETATM   40  H           0      20.516 -11.192  -1.804  0.00  0.00     0.209 HD
ENDBRANCH  38  39
ENDBRANCH  29  38
ENDBRANCH  26  29
ENDBRANCH  20  25
ENDBRANCH   5  18
ENDBRANCH   3   5
BRANCH   1  41
HETATM   41  C           0      12.294 -18.625   0.096  0.00  0.00     0.185 C 
BRANCH  41  42
HETATM   42  C           0      11.707 -19.779  -0.740  0.00  0.00     0.137 C 
BRANCH  42  43
HETATM   43  C           0      11.551 -21.101   0.012  0.00  0.00     0.217 C 
HETATM   44  N           0      11.070 -20.968   1.267  0.00  0.00    -0.370 N 
HETATM   45  H           0      11.045 -21.798   1.843  0.00  0.00     0.159 HD
HETATM   46  H           0      10.894 -20.053   1.700  0.00  0.00     0.159 HD
HETATM   47  O           0      11.876 -22.180  -0.490  0.00  0.00    -0.274 OA
ENDBRANCH  42  43
ENDBRANCH  41  42
BRANCH  41  48
HETATM   48  N           0      11.230 -17.649   0.295  0.00  0.00    -0.346 N 
HETATM   49  H           0      10.818 -17.571   1.215  0.00  0.00     0.163 HD
HETATM   50  C           0      10.697 -16.909  -0.700  0.00  0.00     0.241 C 
HETATM   51  O           0      11.047 -17.009  -1.882  0.00  0.00    -0.271 OA
BRANCH  50  52
HETATM   52  C           0       9.623 -15.882  -0.293  0.00  0.00     0.177 C 
BRANCH  52  53
HETATM   53  N           0      10.120 -14.912   0.677  0.00  0.00    -0.346 N 
HETATM   54  H           0      11.013 -14.465   0.507  0.00  0.00     0.163 HD
HETATM   55  C           0       9.367 -14.500   1.732  0.00  0.00     0.236 C 
HETATM   56  O           0       8.228 -14.908   1.941  0.00  0.00    -0.272 OA
BRANCH  55  57
HETATM   57  C           0      10.002 -13.457   2.662  0.00  0.00     0.225 C 
BRANCH  57  58
HETATM   58  N           0      10.511 -14.004   3.918  0.00  0.00    -0.351 N 
HETATM   59  H           0      10.214 -14.936   4.170  0.00  0.00     0.163 HD
HETATM   60  C           0      11.554 -13.399   4.534  0.00  0.00     0.248 C 
HETATM   61  O           0      12.029 -12.341   4.107  0.00  0.00    -0.271 OA
BRANCH  60  62
HETATM   62  C           0      12.161 -13.997   5.808  0.00  0.00     0.275 C 
BRANCH  62  63
HETATM   63  N           0      11.134 -14.691   6.688  0.00  0.00    -0.066 N 
HETATM   64  H           0      11.494 -15.556   7.106  0.00  0.00     0.275 HD
HETATM   65  H           0      10.770 -14.101   7.442  0.00  0.00     0.275 HD
HETATM   66  H           0      10.322 -14.956   6.119  0.00  0.00     0.275 HD
ENDBRANCH  62  63
BRANCH  62  67
HETATM   67  C           0      13.342 -14.953   5.573  0.00  0.00     0.053 C 
BRANCH  67  68
HETATM   68  C           0      12.949 -16.310   4.975  0.00  0.00     0.115 C 
BRANCH  68  69
HETATM   69  C           0      13.162 -16.489   3.459  0.00  0.00     0.172 C 
HETATM   70  O           0      12.180 -16.335   2.685  0.00  0.00    -0.648 OA
HETATM   71  O           0      14.340 -16.807   3.096  0.00  0.00    -0.648 OA
ENDBRANCH  68  69
ENDBRANCH  67  68
ENDBRANCH  62  67
ENDBRANCH  60  62
ENDBRANCH  57  58
ENDBRANCH  55  57
ENDBRANCH  52  53
BRANCH  52  72
HETATM   72  C           0       9.063 -15.126  -1.520  0.00  0.00     0.038 C 
BRANCH  72  73
HETATM   73  C           0       9.483 -13.653  -1.684  0.00  0.00    -0.020 C 
HETATM   74  C           0      10.155 -13.379  -3.038  0.00  0.00     0.009 C 
HETATM   75  C           0       8.252 -12.753  -1.492  0.00  0.00     0.009 C 
ENDBRANCH  72  73
ENDBRANCH  52  72
ENDBRANCH  50  52
ENDBRANCH  41  48
ENDBRANCH   1  41
TORSDOF 28
ENDMDL
MODEL 2
REMARK VINA RESULT:      -4.9      8.415     12.661
REMARK  28 active torsions:
REMARK  status: ('A' for Active; 'I' for Inactive)
REMARK       I    between atoms: C_1  and  N_3 
REMARK    1  A    between atoms: C_1  and  C_41 
REMARK    2  A    between atoms: N_3  and  C_5 
REMARK    3  A    between atoms: C_5  and  C_6 
REMARK    4  A    between atoms: C_5  and  C_18 
REMARK       I    between atoms: C_18  and  N_19 
REMARK    5  A    between atoms: C_20  and  C_25 
REMARK       I    between atoms: C_25  and  N_26 
REMARK    6  A    between atoms: N_26  and  C_29 
REMARK    7  A    between atoms: C_29  and  C_30 
REMARK    8  A    between atoms: C_29  and  C_38 
REMARK       I    between atoms: C_30  and  N_31 
REMARK    9  A    between atoms: N_31  and  C_34 
REMARK   10  A    between atoms: C_34  and  C_35 
REMARK   11  A    between atoms: C_38  and  O_39 
REMARK   12  A    between atoms: C_6  and  C_7 
REMARK   13  A    between atoms: C_7  and  C_8 
REMARK   14  A    between atoms: C_8  and  N_9 
REMARK       I    between atoms: N_9  and  C_10 
REMARK       I    between atoms: C_10  and  N_12 
REMARK   15  A    between atoms: C_41  and  C_42 
REMARK   16  A    between atoms: C_41  and  N_48 
REMARK       I    between atoms: N_48  and  C_50 
REMARK   17  A    between atoms: C_50  and  C_52 
REMARK   18  A    between atoms: C_52  and  N_53 
REMARK   19  A    between atoms: C_52  and  C_72 
REMARK       I    between atoms: N_53  and  C_55 
REMARK   20  A    between atoms: C_55  and  C_57 
REMARK   21  A    between atoms: C_57  and  N_58 
REMARK       I    between atoms: N_58  and  C_60 
REMARK   22  A    between atoms: C_60  and  C_62 
REMARK   23  A    between atoms: C_62  and  N_63 
REMARK   24  A    between atoms: C_62  and  C_67 
REMARK   25  A    between atoms: C_67  and  C_68 
REMARK   26  A    between atoms: C_68  and  C_69 
REMARK   27  A    between atoms: C_72  and  C_73 
REMARK   28  A    between atoms: C_42  and  C_43 
REMARK       I    between atoms: C_43  and  N_44 
ROOT
HETATM    1  C           0      15.631  -4.629   3.444  0.00  0.00     0.241 C 
HETATM    2  O           0      14.788  -4.714   2.543  0.00  0.00    -0.271 OA
HETATM    3  N           0      16.532  -3.619   3.485  0.00  0.00    -0.346 N 
HETATM    4  H           0      17.229  -3.605   4.219  0.00  0.00     0.163 HD
ENDROOT
BRANCH   3   5
HETATM    5  C           0      16.412  -2.488   2.567  0.00  0.00     0.176 C 
BRANCH   5   6
HETATM    6  C           0      15.721  -1.287   3.234  0.00  0.00     0.036 C 
BRANCH   6   7
HETATM    7  C           0      15.905  -0.014   2.399  0.00  0.00     0.023 C 
BRANCH   7   8
HETATM    8  C           0      14.749   0.278   1.441  0.00  0.00     0.138 C 
BRANCH   8   9
HETATM    9  N           0      15.222   0.002   0.087  0.00  0.00    -0.227 N 
HETATM   10  C           0      15.302   0.866  -0.921  0.00  0.00     0.665 C 
HETATM   11  N           0      14.877   2.131  -0.800  0.00  0.00    -0.235 N 
HETATM   12  N           0      15.838   0.429  -2.075  0.00  0.00    -0.235 N 
HETATM   13  H           0      15.074   2.810  -1.520  0.00  0.00     0.174 HD
HETATM   14  H           0      14.549   2.483   0.085  0.00  0.00     0.174 HD
HETATM   15  H           0      15.703   0.951  -2.927  0.00  0.00     0.174 HD
HETATM   16  H           0      16.013  -0.577  -2.131  0.00  0.00     0.174 HD
HETATM   17  H           0      15.515  -0.958  -0.160  0.00  0.00     0.177 HD
ENDBRANCH   8   9
ENDBRANCH   7   8
ENDBRANCH   6   7
ENDBRANCH   5   6
BRANCH   5  18
HETATM   18  C           0      17.708  -2.102   1.820  0.00  0.00     0.243 C 
HETATM   19  N           0      17.812  -2.292   0.476  0.00  0.00    -0.337 N 
HETATM   20  C           0      19.008  -1.802  -0.230  0.00  0.00     0.179 C 
HETATM   21  C           0      17.108  -3.304  -0.340  0.00  0.00     0.127 C 
HETATM   22  C           0      19.169  -2.756  -1.447  0.00  0.00     0.037 C 
HETATM   23  C           0      18.257  -3.950  -1.122  0.00  0.00     0.022 C 
HETATM   24  O           0      18.601  -1.559   2.477  0.00  0.00    -0.271 OA
BRANCH  20  25
HETATM   25  C           0      18.929  -0.340  -0.701  0.00  0.00     0.241 C 
HETATM   26  N           0      19.457  -0.034  -1.914  0.00  0.00    -0.344 N 
HETATM   27  H           0      19.876  -0.766  -2.482  0.00  0.00     0.163 HD
HETATM   28  O           0      18.409   0.497   0.041  0.00  0.00    -0.271 OA
BRANCH  26  29
HETATM   29  C           0      19.598   1.343  -2.365  0.00  0.00     0.200 C 
BRANCH  29  30
HETATM   30  C           0      18.595   1.803  -3.442  0.00  0.00     0.242 C 
HETATM   31  N           0      18.265   3.101  -3.480  0.00  0.00    -0.354 N 
HETATM   32  H           0      18.683   3.797  -2.867  0.00  0.00     0.162 HD
HETATM   33  O           0      18.132   0.958  -4.223  0.00  0.00    -0.271 OA
BRANCH  31  34
HETATM   34  C           0      17.372   3.671  -4.472  0.00  0.00     0.203 C 
BRANCH  34  35
HETATM   35  C           0      15.957   3.892  -3.865  0.00  0.00     0.307 C 
HETATM   36  O           0      15.199   2.886  -3.837  0.00  0.00    -0.186 OA
HETATM   37  O           0      15.726   5.059  -3.465  0.00  0.00    -0.186 OA
ENDBRANCH  34  35
ENDBRANCH  31  34
ENDBRANCH  29  30
BRANCH  29  38
HETATM   38  C           0      21.036   1.621  -2.853  0.00  0.00     0.199 C 
BRANCH  38  39
HETATM   39  O           0      21.117   1.787  -4.256  0.00  0.00    -0.398 OA
HETATM   40  H           0      21.797   2.448  -4.471  0.00  0.00     0.209 HD
ENDBRANCH  38  39
ENDBRANCH  29  38
ENDBRANCH  26  29
ENDBRANCH  20  25
ENDBRANCH   5  18
ENDBRANCH   3   5
BRANCH   1  41
HETATM   41  C           0      15.669  -5.650   4.601  0.00  0.00     0.185 C 
BRANCH  41  42
HETATM   42  C           0      16.910  -5.479   5.497  0.00  0.00     0.137 C 
BRANCH  42  43
HETATM   43  C           0      18.052  -6.452   5.205  0.00  0.00     0.217 C 
HETATM   44  N           0      18.936  -6.006   4.286  0.00  0.00    -0.370 N 
HETATM   45  H           0      19.651  -6.651   3.980  0.00  0.00     0.159 HD
HETATM   46  H           0      18.810  -5.122   3.778  0.00  0.00     0.159 HD
HETATM   47  O           0      18.121  -7.559   5.745  0.00  0.00    -0.274 OA
ENDBRANCH  42  43
ENDBRANCH  41  42
BRANCH  41  48
HETATM   48  N           0      15.668  -7.026   4.120  0.00  0.00    -0.346 N 
HETATM   49  H           0      16.175  -7.236   3.270  0.00  0.00     0.163 HD
HETATM   50  C           0      14.953  -8.018   4.690  0.00  0.00     0.241 C 
HETATM   51  O           0      14.209  -7.845   5.663  0.00  0.00    -0.271 OA
BRANCH  50  52
HETATM   52  C           0      15.124  -9.424   4.085  0.00  0.00     0.177 C 
BRANCH  52  53
HETATM   53  N           0      13.854 -10.003   3.655  0.00  0.00    -0.346 N 
HETATM   54  H           0      13.197  -9.419   3.154  0.00  0.00     0.163 HD
HETATM   55  C           0      13.584 -11.328   3.796  0.00  0.00     0.236 C 
HETATM   56  O           0      14.378 -12.125   4.289  0.00  0.00    -0.272 OA
BRANCH  55  57
HETATM   57  C           0      12.221 -11.809   3.279  0.00  0.00     0.225 C 
BRANCH  57  58
HETATM   58  N           0      12.244 -12.315   1.908  0.00  0.00    -0.351 N 
HETATM   59  H           0      13.130 -12.299   1.425  0.00  0.00     0.163 HD
HETATM   60  C           0      11.195 -13.036   1.448  0.00  0.00     0.248 C 
HETATM   61  O           0      10.177 -13.201   2.129  0.00  0.00    -0.271 OA
BRANCH  60  62
HETATM   62  C           0      11.227 -13.648   0.043  0.00  0.00     0.275 C 
BRANCH  62  63
HETATM   63  N           0      11.180 -12.606  -1.062  0.00  0.00    -0.066 N 
HETATM   64  H           0      11.001 -13.018  -1.984  0.00  0.00     0.275 HD
HETATM   65  H           0      10.489 -11.867  -0.905  0.00  0.00     0.275 HD
HETATM   66  H           0      12.089 -12.135  -1.124  0.00  0.00     0.275 HD
ENDBRANCH  62  63
BRANCH  62  67
HETATM   67  C           0      12.406 -14.599  -0.219  0.00  0.00     0.053 C 
BRANCH  67  68
HETATM   68  C           0      13.618 -13.936  -0.885  0.00  0.00     0.115 C 
BRANCH  68  69
HETATM   69  C           0      14.928 -13.907  -0.072  0.00  0.00     0.172 C 
HETATM   70  O           0      14.902 -13.465   1.107  0.00  0.00    -0.648 OA
HETATM   71  O           0      15.968 -14.324  -0.678  0.00  0.00    -0.648 OA
ENDBRANCH  68  69
ENDBRANCH  67  68
ENDBRANCH  62  67
ENDBRANCH  60  62
ENDBRANCH  57  58
ENDBRANCH  55  57
ENDBRANCH  52  53
BRANCH  52  72
HETATM   72  C           0      16.105  -9.417   2.890  0.00  0.00     0.038 C 
BRANCH  72  73
HETATM   73  C           0      17.427 -10.188   3.067  0.00  0.00    -0.020 C 
HETATM   74  C           0      18.659  -9.322   2.770  0.00  0.00     0.009 C 
HETATM   75  C           0      17.490 -10.759   4.493  0.00  0.00     0.009 C 
ENDBRANCH  72  73
ENDBRANCH  52  72
ENDBRANCH  50  52
ENDBRANCH  41  48
ENDBRANCH   1  41
TORSDOF 28
ENDMDL
MODEL 3
REMARK VINA RESULT:      -4.8      3.280      6.360
REMARK  28 active torsions:
REMARK  status: ('A' for Active; 'I' for Inactive)
REMARK       I    between atoms: C_1  and  N_3 
REMARK    1  A    between atoms: C_1  and  C_41 
REMARK    2  A    between atoms: N_3  and  C_5 
REMARK    3  A    between atoms: C_5  and  C_6 
REMARK    4  A    between atoms: C_5  and  C_18 
REMARK       I    between atoms: C_18  and  N_19 
REMARK    5  A    between atoms: C_20  and  C_25 
REMARK       I    between atoms: C_25  and  N_26 
REMARK    6  A    between atoms: N_26  and  C_29 
REMARK    7  A    between atoms: C_29  and  C_30 
REMARK    8  A    between atoms: C_29  and  C_38 
REMARK       I    between atoms: C_30  and  N_31 
REMARK    9  A    between atoms: N_31  and  C_34 
REMARK   10  A    between atoms: C_34  and  C_35 
REMARK   11  A    between atoms: C_38  and  O_39 
REMARK   12  A    between atoms: C_6  and  C_7 
REMARK   13  A    between atoms: C_7  and  C_8 
REMARK   14  A    between atoms: C_8  and  N_9 
REMARK       I    between atoms: N_9  and  C_10 
REMARK       I    between atoms: C_10  and  N_12 
REMARK   15  A    between atoms: C_41  and  C_42 
REMARK   16  A    between atoms: C_41  and  N_48 
REMARK       I    between atoms: N_48  and  C_50 
REMARK   17  A    between atoms: C_50  and  C_52 
REMARK   18  A    between atoms: C_52  and  N_53 
REMARK   19  A    between atoms: C_52  and  C_72 
REMARK       I    between atoms: N_53  and  C_55 
REMARK   20  A    between atoms: C_55  and  C_57 
REMARK   21  A    between atoms: C_57  and  N_58 
REMARK       I    between atoms: N_58  and  C_60 
REMARK   22  A    between atoms: C_60  and  C_62 
REMARK   23  A    between atoms: C_62  and  N_63 
REMARK   24  A    between atoms: C_62  and  C_67 
REMARK   25  A    between atoms: C_67  and  C_68 
REMARK   26  A    between atoms: C_68  and  C_69 
REMARK   27  A    between atoms: C_72  and  C_73 
REMARK   28  A    between atoms: C_42  and  C_43 
REMARK       I    between atoms: C_43  and  N_44 
ROOT
HETATM    1  C           0      13.878 -16.957  -0.774  0.00  0.00     0.241 C 
HETATM    2  O           0      15.101 -16.833  -0.908  0.00  0.00    -0.271 OA
HETATM    3  N           0      13.113 -15.962  -0.266  0.00  0.00    -0.346 N 
HETATM    4  H           0      12.119 -16.116  -0.138  0.00  0.00     0.163 HD
ENDROOT
BRANCH   3   5
HETATM    5  C           0      13.683 -14.636  -0.037  0.00  0.00     0.176 C 
BRANCH   5   6
HETATM    6  C           0      12.759 -13.523  -0.557  0.00  0.00     0.036 C 
BRANCH   6   7
HETATM    7  C           0      11.786 -14.065  -1.612  0.00  0.00     0.023 C 
BRANCH   7   8
HETATM    8  C           0      10.320 -13.724  -1.345  0.00  0.00     0.138 C 
BRANCH   8   9
HETATM    9  N           0       9.864 -14.578  -0.252  0.00  0.00    -0.227 N 
HETATM   10  C           0       8.671 -15.154  -0.135  0.00  0.00     0.665 C 
HETATM   11  N           0       7.697 -14.947  -1.032  0.00  0.00    -0.235 N 
HETATM   12  N           0       8.472 -15.969   0.918  0.00  0.00    -0.235 N 
HETATM   13  H           0       6.852 -15.497  -1.010  0.00  0.00     0.174 HD
HETATM   14  H           0       7.867 -14.401  -1.861  0.00  0.00     0.174 HD
HETATM   15  H           0       7.536 -16.231   1.187  0.00  0.00     0.174 HD
HETATM   16  H           0       9.212 -15.970   1.624  0.00  0.00     0.174 HD
HETATM   17  H           0      10.497 -14.763   0.544  0.00  0.00     0.177 HD
ENDBRANCH   8   9
ENDBRANCH   7   8
ENDBRANCH   6   7
ENDBRANCH   5   6
BRANCH   5  18
HETATM   18  C           0      14.198 -14.375   1.396  0.00  0.00     0.243 C 
HETATM   19  N           0      15.222 -13.506   1.613  0.00  0.00    -0.337 N 
HETATM   20  C           0      15.610 -13.182   2.997  0.00  0.00     0.179 C 
HETATM   21  C           0      16.310 -13.156   0.676  0.00  0.00     0.127 C 
HETATM   22  C           0      17.123 -12.836   2.914  0.00  0.00     0.037 C 
HETATM   23  C           0      17.562 -13.359   1.537  0.00  0.00     0.022 C 
HETATM   24  O           0      13.599 -14.930   2.322  0.00  0.00    -0.271 OA
BRANCH  20  25
HETATM   25  C           0      14.828 -12.020   3.634  0.00  0.00     0.241 C 
HETATM   26  N           0      15.294 -10.760   3.441  0.00  0.00    -0.344 N 
HETATM   27  H           0      16.129 -10.610   2.881  0.00  0.00     0.163 HD
HETATM   28  O           0      13.824 -12.275   4.303  0.00  0.00    -0.271 OA
BRANCH  26  29
HETATM   29  C           0      14.736  -9.618   4.151  0.00  0.00     0.200 C 
BRANCH  29  30
HETATM   30  C           0      15.378  -8.252   3.834  0.00  0.00     0.242 C 
HETATM   31  N           0      14.589  -7.169   3.848  0.00  0.00    -0.354 N 
HETATM   32  H           0      13.606  -7.203   4.106  0.00  0.00     0.162 HD
HETATM   33  O           0      16.590  -8.210   3.576  0.00  0.00    -0.271 OA
BRANCH  31  34
HETATM   34  C           0      15.077  -5.822   3.615  0.00  0.00     0.203 C 
BRANCH  34  35
HETATM   35  C           0      13.984  -4.963   2.916  0.00  0.00     0.307 C 
HETATM   36  O           0      14.385  -4.172   2.020  0.00  0.00    -0.186 OA
HETATM   37  O           0      12.813  -5.155   3.324  0.00  0.00    -0.186 OA
ENDBRANCH  34  35
ENDBRANCH  31  34
ENDBRANCH  29  30
BRANCH  29  38
HETATM   38  C           0      14.755  -9.850   5.677  0.00  0.00     0.199 C 
BRANCH  38  39
HETATM   39  O           0      14.112  -8.816   6.398  0.00  0.00    -0.398 OA
HETATM   40  H           0      13.162  -8.810   6.188  0.00  0.00     0.209 HD
ENDBRANCH  38  39
ENDBRANCH  29  38
ENDBRANCH  26  29
ENDBRANCH  20  25
ENDBRANCH   5  18
ENDBRANCH   3   5
BRANCH   1  41
HETATM   41  C           0      13.151 -18.240  -1.225  0.00  0.00     0.185 C 
BRANCH  41  42
HETATM   42  C           0      11.717 -17.964  -1.716  0.00  0.00     0.137 C 
BRANCH  42  43
HETATM   43  C           0      11.582 -17.756  -3.224  0.00  0.00     0.217 C 
HETATM   44  N           0      10.673 -16.821  -3.573  0.00  0.00    -0.370 N 
HETATM   45  H           0      10.470 -16.717  -4.557  0.00  0.00     0.159 HD
HETATM   46  H           0      10.075 -16.344  -2.887  0.00  0.00     0.159 HD
HETATM   47  O           0      12.231 -18.422  -4.035  0.00  0.00    -0.274 OA
ENDBRANCH  42  43
ENDBRANCH  41  42
BRANCH  41  48
HETATM   48  N           0      13.060 -19.227  -0.155  0.00  0.00    -0.346 N 
HETATM   49  H           0      13.481 -20.135  -0.305  0.00  0.00     0.163 HD
HETATM   50  C           0      12.367 -19.032   0.985  0.00  0.00     0.241 C 
HETATM   51  O           0      11.721 -18.004   1.220  0.00  0.00    -0.271 OA
BRANCH  50  52
HETATM   52  C           0      12.435 -20.161   2.032  0.00  0.00     0.177 C 
BRANCH  52  53
HETATM   53  N           0      12.370 -19.655   3.400  0.00  0.00    -0.346 N 
HETATM   54  H           0      11.522 -19.198   3.711  0.00  0.00     0.163 HD
HETATM   55  C           0      13.361 -19.890   4.301  0.00  0.00     0.236 C 
HETATM   56  O           0      14.370 -20.537   4.034  0.00  0.00    -0.272 OA
BRANCH  55  57
HETATM   57  C           0      13.153 -19.322   5.712  0.00  0.00     0.225 C 
BRANCH  57  58
HETATM   58  N           0      13.130 -17.862   5.774  0.00  0.00    -0.351 N 
HETATM   59  H           0      14.011 -17.381   5.657  0.00  0.00     0.163 HD
HETATM   60  C           0      11.946 -17.210   5.689  0.00  0.00     0.248 C 
HETATM   61  O           0      10.874 -17.823   5.651  0.00  0.00    -0.271 OA
BRANCH  60  62
HETATM   62  C           0      11.900 -15.678   5.670  0.00  0.00     0.275 C 
BRANCH  62  63
HETATM   63  N           0      13.216 -15.048   5.244  0.00  0.00    -0.066 N 
HETATM   64  H           0      13.797 -15.686   4.690  0.00  0.00     0.275 HD
HETATM   65  H           0      13.105 -14.178   4.714  0.00  0.00     0.275 HD
HETATM   66  H           0      13.762 -14.804   6.077  0.00  0.00     0.275 HD
ENDBRANCH  62  63
BRANCH  62  67
HETATM   67  C           0      10.764 -15.078   4.824  0.00  0.00     0.053 C 
BRANCH  67  68
HETATM   68  C           0      10.974 -13.611   4.432  0.00  0.00     0.115 C 
BRANCH  68  69
HETATM   69  C           0      10.470 -13.186   3.039  0.00  0.00     0.172 C 
HETATM   70  O           0       9.342 -13.590   2.651  0.00  0.00    -0.648 OA
HETATM   71  O           0      11.262 -12.455   2.360  0.00  0.00    -0.648 OA
ENDBRANCH  68  69
ENDBRANCH  67  68
ENDBRANCH  62  67
ENDBRANCH  60  62
ENDBRANCH  57  58
ENDBRANCH  55  57
ENDBRANCH  52  53
BRANCH  52  72
HETATM   72  C           0      11.311 -21.201   1.825  0.00  0.00     0.038 C 
BRANCH  72  73
HETATM   73  C           0      11.740 -22.673   1.672  0.00  0.00    -0.020 C 
HETATM   74  C           0      10.562 -23.648   1.808  0.00  0.00     0.009 C 
HETATM   75  C           0      12.448 -22.854   0.320  0.00  0.00     0.009 C 
ENDBRANCH  72  73
ENDBRANCH  52  72
ENDBRANCH  50  52
ENDBRANCH  41  48
ENDBRANCH   1  41
TORSDOF 28
ENDMDL
MODEL 4
REMARK VINA RESULT:      -4.8      3.322      6.833
REMARK  28 active torsions:
REMARK  status: ('A' for Active; 'I' for Inactive)
REMARK       I    between atoms: C_1  and  N_3 
REMARK    1  A    between atoms: C_1  and  C_41 
REMARK    2  A    between atoms: N_3  and  C_5 
REMARK    3  A    between atoms: C_5  and  C_6 
REMARK    4  A    between atoms: C_5  and  C_18 
REMARK       I    between atoms: C_18  and  N_19 
REMARK    5  A    between atoms: C_20  and  C_25 
REMARK       I    between atoms: C_25  and  N_26 
REMARK    6  A    between atoms: N_26  and  C_29 
REMARK    7  A    between atoms: C_29  and  C_30 
REMARK    8  A    between atoms: C_29  and  C_38 
REMARK       I    between atoms: C_30  and  N_31 
REMARK    9  A    between atoms: N_31  and  C_34 
REMARK   10  A    between atoms: C_34  and  C_35 
REMARK   11  A    between atoms: C_38  and  O_39 
REMARK   12  A    between atoms: C_6  and  C_7 
REMARK   13  A    between atoms: C_7  and  C_8 
REMARK   14  A    between atoms: C_8  and  N_9 
REMARK       I    between atoms: N_9  and  C_10 
REMARK       I    between atoms: C_10  and  N_12 
REMARK   15  A    between atoms: C_41  and  C_42 
REMARK   16  A    between atoms: C_41  and  N_48 
REMARK       I    between atoms: N_48  and  C_50 
REMARK   17  A    between atoms: C_50  and  C_52 
REMARK   18  A    between atoms: C_52  and  N_53 
REMARK   19  A    between atoms: C_52  and  C_72 
REMARK       I    between atoms: N_53  and  C_55 
REMARK   20  A    between atoms: C_55  and  C_57 
REMARK   21  A    between atoms: C_57  and  N_58 
REMARK       I    between atoms: N_58  and  C_60 
REMARK   22  A    between atoms: C_60  and  C_62 
REMARK   23  A    between atoms: C_62  and  N_63 
REMARK   24  A    between atoms: C_62  and  C_67 
REMARK   25  A    between atoms: C_67  and  C_68 
REMARK   26  A    between atoms: C_68  and  C_69 
REMARK   27  A    between atoms: C_72  and  C_73 
REMARK   28  A    between atoms: C_42  and  C_43 
REMARK       I    between atoms: C_43  and  N_44 
ROOT
HETATM    1  C           0      11.548 -15.422   1.029  0.00  0.00     0.241 C 
HETATM    2  O           0      11.504 -15.920   2.159  0.00  0.00    -0.271 OA
HETATM    3  N           0      12.415 -14.429   0.720  0.00  0.00    -0.346 N 
HETATM    4  H           0      12.395 -14.023  -0.208  0.00  0.00     0.163 HD
ENDROOT
BRANCH   3   5
HETATM    5  C           0      13.460 -14.043   1.666  0.00  0.00     0.176 C 
BRANCH   5   6
HETATM    6  C           0      14.725 -13.551   0.943  0.00  0.00     0.036 C 
BRANCH   6   7
HETATM    7  C           0      15.608 -14.730   0.516  0.00  0.00     0.023 C 
BRANCH   7   8
HETATM    8  C           0      15.860 -15.756   1.621  0.00  0.00     0.138 C 
BRANCH   8   9
HETATM    9  N           0      15.239 -17.010   1.204  0.00  0.00    -0.227 N 
HETATM   10  C           0      15.856 -18.075   0.698  0.00  0.00     0.665 C 
HETATM   11  N           0      17.174 -18.077   0.455  0.00  0.00    -0.235 N 
HETATM   12  N           0      15.109 -19.166   0.446  0.00  0.00    -0.235 N 
HETATM   13  H           0      17.649 -18.932   0.209  0.00  0.00     0.174 HD
HETATM   14  H           0      17.748 -17.292   0.716  0.00  0.00     0.174 HD
HETATM   15  H           0      15.464 -19.897  -0.151  0.00  0.00     0.174 HD
HETATM   16  H           0      14.098 -19.041   0.532  0.00  0.00     0.174 HD
HETATM   17  H           0      14.213 -17.115   1.274  0.00  0.00     0.177 HD
ENDBRANCH   8   9
ENDBRANCH   7   8
ENDBRANCH   6   7
ENDBRANCH   5   6
BRANCH   5  18
HETATM   18  C           0      13.009 -13.102   2.804  0.00  0.00     0.243 C 
HETATM   19  N           0      13.358 -13.361   4.093  0.00  0.00    -0.337 N 
HETATM   20  C           0      13.021 -12.384   5.142  0.00  0.00     0.179 C 
HETATM   21  C           0      13.646 -14.682   4.692  0.00  0.00     0.127 C 
HETATM   22  C           0      12.861 -13.229   6.436  0.00  0.00     0.037 C 
HETATM   23  C           0      12.753 -14.679   5.937  0.00  0.00     0.022 C 
HETATM   24  O           0      12.387 -12.085   2.484  0.00  0.00    -0.271 OA
BRANCH  20  25
HETATM   25  C           0      14.065 -11.273   5.352  0.00  0.00     0.241 C 
HETATM   26  N           0      14.085 -10.245   4.465  0.00  0.00    -0.344 N 
HETATM   27  H           0      13.415 -10.225   3.700  0.00  0.00     0.163 HD
HETATM   28  O           0      14.847 -11.363   6.301  0.00  0.00    -0.271 OA
BRANCH  26  29
HETATM   29  C           0      15.146  -9.248   4.468  0.00  0.00     0.200 C 
BRANCH  29  30
HETATM   30  C           0      14.698  -7.792   4.703  0.00  0.00     0.242 C 
HETATM   31  N           0      14.558  -6.997   3.634  0.00  0.00    -0.354 N 
HETATM   32  H           0      14.684  -7.325   2.679  0.00  0.00     0.162 HD
HETATM   33  O           0      14.490  -7.414   5.866  0.00  0.00    -0.271 OA
BRANCH  31  34
HETATM   34  C           0      14.096  -5.623   3.713  0.00  0.00     0.203 C 
BRANCH  34  35
HETATM   35  C           0      15.132  -4.665   3.059  0.00  0.00     0.307 C 
HETATM   36  O           0      14.752  -4.057   2.022  0.00  0.00    -0.186 OA
HETATM   37  O           0      16.241  -4.600   3.643  0.00  0.00    -0.186 OA
ENDBRANCH  34  35
ENDBRANCH  31  34
ENDBRANCH  29  30
BRANCH  29  38
HETATM   38  C           0      15.981  -9.324   3.172  0.00  0.00     0.199 C 
BRANCH  38  39
HETATM   39  O           0      17.268  -9.876   3.381  0.00  0.00    -0.398 OA
HETATM   40  H           0      17.882  -9.180   3.670  0.00  0.00     0.209 HD
ENDBRANCH  38  39
ENDBRANCH  29  38
ENDBRANCH  26  29
ENDBRANCH  20  25
ENDBRANCH   5  18
ENDBRANCH   3   5
BRANCH   1  41
HETATM   41  C           0      10.646 -15.944  -0.110  0.00  0.00     0.185 C 
BRANCH  41  42
HETATM   42  C           0       9.147 -15.743   0.186  0.00  0.00     0.137 C 
BRANCH  42  43
HETATM   43  C           0       8.494 -14.584  -0.567  0.00  0.00     0.217 C 
HETATM   44  N           0       7.369 -14.924  -1.233  0.00  0.00    -0.370 N 
HETATM   45  H           0       6.955 -14.223  -1.831  0.00  0.00     0.159 HD
HETATM   46  H           0       7.025 -15.891  -1.285  0.00  0.00     0.159 HD
HETATM   47  O           0       8.988 -13.454  -0.583  0.00  0.00    -0.274 OA
ENDBRANCH  42  43
ENDBRANCH  41  42
BRANCH  41  48
HETATM   48  N           0      10.850 -17.365  -0.366  0.00  0.00    -0.346 N 
HETATM   49  H           0      10.114 -18.008  -0.106  0.00  0.00     0.163 HD
HETATM   50  C           0      12.001 -17.882  -0.841  0.00  0.00     0.241 C 
HETATM   51  O           0      13.004 -17.199  -1.082  0.00  0.00    -0.271 OA
BRANCH  50  52
HETATM   52  C           0      12.015 -19.399  -1.110  0.00  0.00     0.177 C 
BRANCH  52  53
HETATM   53  N           0      11.242 -20.146  -0.123  0.00  0.00    -0.346 N 
HETATM   54  H           0      10.387 -19.739   0.237  0.00  0.00     0.163 HD
HETATM   55  C           0      11.567 -21.418   0.231  0.00  0.00     0.236 C 
HETATM   56  O           0      12.521 -22.024  -0.249  0.00  0.00    -0.272 OA
BRANCH  55  57
HETATM   57  C           0      10.655 -22.097   1.262  0.00  0.00     0.225 C 
BRANCH  57  58
HETATM   58  N           0      10.538 -21.375   2.527  0.00  0.00    -0.351 N 
HETATM   59  H           0       9.841 -20.645   2.580  0.00  0.00     0.163 HD
HETATM   60  C           0      11.128 -21.877   3.638  0.00  0.00     0.248 C 
HETATM   61  O           0      11.840 -22.885   3.590  0.00  0.00    -0.271 OA
BRANCH  60  62
HETATM   62  C           0      10.953 -21.184   4.994  0.00  0.00     0.275 C 
BRANCH  62  63
HETATM   63  N           0      10.706 -22.158   6.134  0.00  0.00    -0.066 N 
HETATM   64  H           0      11.396 -22.065   6.887  0.00  0.00     0.275 HD
HETATM   65  H           0       9.772 -22.083   6.547  0.00  0.00     0.275 HD
HETATM   66  H           0      10.784 -23.119   5.783  0.00  0.00     0.275 HD
ENDBRANCH  62  63
BRANCH  62  67
HETATM   67  C           0      12.100 -20.238   5.387  0.00  0.00     0.053 C 
BRANCH  67  68
HETATM   68  C           0      12.072 -18.879   4.678  0.00  0.00     0.115 C 
BRANCH  68  69
HETATM   69  C           0      13.134 -18.642   3.587  0.00  0.00     0.172 C 
HETATM   70  O           0      14.211 -18.069   3.900  0.00  0.00    -0.648 OA
HETATM   71  O           0      12.826 -19.036   2.416  0.00  0.00    -0.648 OA
ENDBRANCH  68  69
ENDBRANCH  67  68
ENDBRANCH  62  67
ENDBRANCH  60  62
ENDBRANCH  57  58
ENDBRANCH  55  57
ENDBRANCH  52  53
BRANCH  52  72
HETATM   72  C           0      11.485 -19.733  -2.524  0.00  0.00     0.038 C 
BRANCH  72  73
HETATM   73  C           0      12.534 -19.928  -3.635  0.00  0.00    -0.020 C 
HETATM   74  C           0      12.545 -18.771  -4.644  0.00  0.00     0.009 C 
HETATM   75  C           0      13.919 -20.109  -2.995  0.00  0.00     0.009 C 
ENDBRANCH  72  73
ENDBRANCH  52  72
ENDBRANCH  50  52
ENDBRANCH  41  48
ENDBRANCH   1  41
TORSDOF 28
ENDMDL
MODEL 5
REMARK VINA RESULT:      -4.7      8.387     12.732
REMARK  28 active torsions:
REMARK  status: ('A' for Active; 'I' for Inactive)
REMARK       I    between atoms: C_1  and  N_3 
REMARK    1  A    between atoms: C_1  and  C_41 
REMARK    2  A    between atoms: N_3  and  C_5 
REMARK    3  A    between atoms: C_5  and  C_6 
REMARK    4  A    between atoms: C_5  and  C_18 
REMARK       I    between atoms: C_18  and  N_19 
REMARK    5  A    between atoms: C_20  and  C_25 
REMARK       I    between atoms: C_25  and  N_26 
REMARK    6  A    between atoms: N_26  and  C_29 
REMARK    7  A    between atoms: C_29  and  C_30 
REMARK    8  A    between atoms: C_29  and  C_38 
REMARK       I    between atoms: C_30  and  N_31 
REMARK    9  A    between atoms: N_31  and  C_34 
REMARK   10  A    between atoms: C_34  and  C_35 
REMARK   11  A    between atoms: C_38  and  O_39 
REMARK   12  A    between atoms: C_6  and  C_7 
REMARK   13  A    between atoms: C_7  and  C_8 
REMARK   14  A    between atoms: C_8  and  N_9 
REMARK       I    between atoms: N_9  and  C_10 
REMARK       I    between atoms: C_10  and  N_12 
REMARK   15  A    between atoms: C_41  and  C_42 
REMARK   16  A    between atoms: C_41  and  N_48 
REMARK       I    between atoms: N_48  and  C_50 
REMARK   17  A    between atoms: C_50  and  C_52 
REMARK   18  A    between atoms: C_52  and  N_53 
REMARK   19  A    between atoms: C_52  and  C_72 
REMARK       I    between atoms: N_53  and  C_55 
REMARK   20  A    between atoms: C_55  and  C_57 
REMARK   21  A    between atoms: C_57  and  N_58 
REMARK       I    between atoms: N_58  and  C_60 
REMARK   22  A    between atoms: C_60  and  C_62 
REMARK   23  A    between atoms: C_62  and  N_63 
REMARK   24  A    between atoms: C_62  and  C_67 
REMARK   25  A    between atoms: C_67  and  C_68 
REMARK   26  A    between atoms: C_68  and  C_69 
REMARK   27  A    between atoms: C_72  and  C_73 
REMARK   28  A    between atoms: C_42  and  C_43 
REMARK       I    between atoms: C_43  and  N_44 
ROOT
HETATM    1  C           0      15.989  -4.470   3.262  0.00  0.00     0.241 C 
HETATM    2  O           0      15.073  -4.595   2.442  0.00  0.00    -0.271 OA
HETATM    3  N           0      16.958  -3.536   3.114  0.00  0.00    -0.346 N 
HETATM    4  H           0      17.711  -3.489   3.789  0.00  0.00     0.163 HD
ENDROOT
BRANCH   3   5
HETATM    5  C           0      16.843  -2.514   2.074  0.00  0.00     0.176 C 
BRANCH   5   6
HETATM    6  C           0      15.954  -1.344   2.524  0.00  0.00     0.036 C 
BRANCH   6   7
HETATM    7  C           0      15.273  -0.678   1.323  0.00  0.00     0.023 C 
BRANCH   7   8
HETATM    8  C           0      15.656   0.788   1.119  0.00  0.00     0.138 C 
BRANCH   8   9
HETATM    9  N           0      14.602   1.409   0.320  0.00  0.00    -0.227 N 
HETATM   10  C           0      14.550   2.674  -0.084  0.00  0.00     0.665 C 
HETATM   11  N           0      15.484   3.568   0.272  0.00  0.00    -0.235 N 
HETATM   12  N           0      13.526   3.033  -0.880  0.00  0.00    -0.235 N 
HETATM   13  H           0      15.510   4.481  -0.155  0.00  0.00     0.174 HD
HETATM   14  H           0      16.292   3.285   0.802  0.00  0.00     0.174 HD
HETATM   15  H           0      13.303   4.007  -1.014  0.00  0.00     0.174 HD
HETATM   16  H           0      12.789   2.334  -0.997  0.00  0.00     0.174 HD
HETATM   17  H           0      13.784   0.844   0.036  0.00  0.00     0.177 HD
ENDBRANCH   8   9
ENDBRANCH   7   8
ENDBRANCH   6   7
ENDBRANCH   5   6
BRANCH   5  18
HETATM   18  C           0      18.178  -2.054   1.448  0.00  0.00     0.243 C 
HETATM   19  N           0      18.624  -2.609   0.289  0.00  0.00    -0.337 N 
HETATM   20  C           0      19.835  -2.067  -0.351  0.00  0.00     0.179 C 
HETATM   21  C           0      18.335  -3.967  -0.221  0.00  0.00     0.127 C 
HETATM   22  C           0      20.451  -3.270  -1.118  0.00  0.00     0.037 C 
HETATM   23  C           0      19.735  -4.501  -0.542  0.00  0.00     0.022 C 
HETATM   24  O           0      18.774  -1.127   2.004  0.00  0.00    -0.271 OA
BRANCH  20  25
HETATM   25  C           0      19.589  -0.888  -1.309  0.00  0.00     0.241 C 
HETATM   26  N           0      18.548  -0.980  -2.175  0.00  0.00    -0.344 N 
HETATM   27  H           0      17.956  -1.807  -2.167  0.00  0.00     0.163 HD
HETATM   28  O           0      20.349   0.082  -1.265  0.00  0.00    -0.271 OA
BRANCH  26  29
HETATM   29  C           0      18.346  -0.008  -3.240  0.00  0.00     0.200 C 
BRANCH  29  30
HETATM   30  C           0      17.079   0.861  -3.123  0.00  0.00     0.242 C 
HETATM   31  N           0      17.029   1.999  -3.830  0.00  0.00    -0.354 N 
HETATM   32  H           0      17.764   2.284  -4.473  0.00  0.00     0.162 HD
HETATM   33  O           0      16.162   0.479  -2.380  0.00  0.00    -0.271 OA
BRANCH  31  34
HETATM   34  C           0      15.877   2.880  -3.847  0.00  0.00     0.203 C 
BRANCH  34  35
HETATM   35  C           0      16.232   4.249  -3.199  0.00  0.00     0.307 C 
HETATM   36  O           0      17.044   4.216  -2.235  0.00  0.00    -0.186 OA
HETATM   37  O           0      15.666   5.245  -3.711  0.00  0.00    -0.186 OA
ENDBRANCH  34  35
ENDBRANCH  31  34
ENDBRANCH  29  30
BRANCH  29  38
HETATM   38  C           0      18.375  -0.689  -4.625  0.00  0.00     0.199 C 
BRANCH  38  39
HETATM   39  O           0      18.238  -2.096  -4.547  0.00  0.00    -0.398 OA
HETATM   40  H           0      18.873  -2.454  -3.904  0.00  0.00     0.209 HD
ENDBRANCH  38  39
ENDBRANCH  29  38
ENDBRANCH  26  29
ENDBRANCH  20  25
ENDBRANCH   5  18
ENDBRANCH   3   5
BRANCH   1  41
HETATM   41  C           0      16.050  -5.347   4.531  0.00  0.00     0.185 C 
BRANCH  41  42
HETATM   42  C           0      17.269  -5.021   5.415  0.00  0.00     0.137 C 
BRANCH  42  43
HETATM   43  C           0      18.532  -5.818   5.086  0.00  0.00     0.217 C 
HETATM   44  N           0      19.273  -6.148   6.166  0.00  0.00    -0.370 N 
HETATM   45  H           0      20.169  -6.583   5.997  0.00  0.00     0.159 HD
HETATM   46  H           0      19.044  -5.828   7.115  0.00  0.00     0.159 HD
HETATM   47  O           0      18.847  -6.093   3.925  0.00  0.00    -0.274 OA
ENDBRANCH  42  43
ENDBRANCH  41  42
BRANCH  41  48
HETATM   48  N           0      16.112  -6.769   4.214  0.00  0.00    -0.346 N 
HETATM   49  H           0      16.969  -7.134   3.821  0.00  0.00     0.163 HD
HETATM   50  C           0      15.061  -7.607   4.327  0.00  0.00     0.241 C 
HETATM   51  O           0      13.936  -7.240   4.687  0.00  0.00    -0.271 OA
BRANCH  50  52
HETATM   52  C           0      15.328  -9.091   4.008  0.00  0.00     0.177 C 
BRANCH  52  53
HETATM   53  N           0      14.110  -9.809   3.645  0.00  0.00    -0.346 N 
HETATM   54  H           0      13.441  -9.357   3.035  0.00  0.00     0.163 HD
HETATM   55  C           0      13.910 -11.107   3.997  0.00  0.00     0.236 C 
HETATM   56  O           0      14.728 -11.762   4.638  0.00  0.00    -0.272 OA
BRANCH  55  57
HETATM   57  C           0      12.597 -11.749   3.528  0.00  0.00     0.225 C 
BRANCH  57  58
HETATM   58  N           0      12.595 -12.158   2.125  0.00  0.00    -0.351 N 
HETATM   59  H           0      13.471 -12.094   1.625  0.00  0.00     0.163 HD
HETATM   60  C           0      11.546 -12.860   1.637  0.00  0.00     0.248 C 
HETATM   61  O           0      10.545 -13.087   2.326  0.00  0.00    -0.271 OA
BRANCH  60  62
HETATM   62  C           0      11.555 -13.371   0.192  0.00  0.00     0.275 C 
BRANCH  62  63
HETATM   63  N           0      12.951 -13.682  -0.321  0.00  0.00    -0.066 N 
HETATM   64  H           0      13.541 -12.845  -0.388  0.00  0.00     0.275 HD
HETATM   65  H           0      13.451 -14.379   0.238  0.00  0.00     0.275 HD
HETATM   66  H           0      12.887 -14.072  -1.268  0.00  0.00     0.275 HD
ENDBRANCH  62  63
BRANCH  62  67
HETATM   67  C           0      10.647 -14.585  -0.068  0.00  0.00     0.053 C 
BRANCH  67  68
HETATM   68  C           0       9.175 -14.365   0.299  0.00  0.00     0.115 C 
BRANCH  68  69
HETATM   69  C           0       8.193 -14.146  -0.869  0.00  0.00     0.172 C 
HETATM   70  O           0       7.460 -15.102  -1.235  0.00  0.00    -0.648 OA
HETATM   71  O           0       8.212 -12.990  -1.403  0.00  0.00    -0.648 OA
ENDBRANCH  68  69
ENDBRANCH  67  68
ENDBRANCH  62  67
ENDBRANCH  60  62
ENDBRANCH  57  58
ENDBRANCH  55  57
ENDBRANCH  52  53
BRANCH  52  72
HETATM   72  C           0      16.367  -9.254   2.875  0.00  0.00     0.038 C 
BRANCH  72  73
HETATM   73  C           0      17.681  -9.976   3.231  0.00  0.00    -0.020 C 
HETATM   74  C           0      18.905  -9.335   2.563  0.00  0.00     0.009 C 
HETATM   75  C           0      17.843 -10.004   4.759  0.00  0.00     0.009 C 
ENDBRANCH  72  73
ENDBRANCH  52  72
ENDBRANCH  50  52
ENDBRANCH  41  48
ENDBRANCH   1  41
TORSDOF 28
ENDMDL
MODEL 6
REMARK VINA RESULT:      -4.5     31.610     35.847
REMARK  28 active torsions:
REMARK  status: ('A' for Active; 'I' for Inactive)
REMARK       I    between atoms: C_1  and  N_3 
REMARK    1  A    between atoms: C_1  and  C_41 
REMARK    2  A    between atoms: N_3  and  C_5 
REMARK    3  A    between atoms: C_5  and  C_6 
REMARK    4  A    between atoms: C_5  and  C_18 
REMARK       I    between atoms: C_18  and  N_19 
REMARK    5  A    between atoms: C_20  and  C_25 
REMARK       I    between atoms: C_25  and  N_26 
REMARK    6  A    between atoms: N_26  and  C_29 
REMARK    7  A    between atoms: C_29  and  C_30 
REMARK    8  A    between atoms: C_29  and  C_38 
REMARK       I    between atoms: C_30  and  N_31 
REMARK    9  A    between atoms: N_31  and  C_34 
REMARK   10  A    between atoms: C_34  and  C_35 
REMARK   11  A    between atoms: C_38  and  O_39 
REMARK   12  A    between atoms: C_6  and  C_7 
REMARK   13  A    between atoms: C_7  and  C_8 
REMARK   14  A    between atoms: C_8  and  N_9 
REMARK       I    between atoms: N_9  and  C_10 
REMARK       I    between atoms: C_10  and  N_12 
REMARK   15  A    between atoms: C_41  and  C_42 
REMARK   16  A    between atoms: C_41  and  N_48 
REMARK       I    between atoms: N_48  and  C_50 
REMARK   17  A    between atoms: C_50  and  C_52 
REMARK   18  A    between atoms: C_52  and  N_53 
REMARK   19  A    between atoms: C_52  and  C_72 
REMARK       I    between atoms: N_53  and  C_55 
REMARK   20  A    between atoms: C_55  and  C_57 
REMARK   21  A    between atoms: C_57  and  N_58 
REMARK       I    between atoms: N_58  and  C_60 
REMARK   22  A    between atoms: C_60  and  C_62 
REMARK   23  A    between atoms: C_62  and  N_63 
REMARK   24  A    between atoms: C_62  and  C_67 
REMARK   25  A    between atoms: C_67  and  C_68 
REMARK   26  A    between atoms: C_68  and  C_69 
REMARK   27  A    between atoms: C_72  and  C_73 
REMARK   28  A    between atoms: C_42  and  C_43 
REMARK       I    between atoms: C_43  and  N_44 
ROOT
HETATM    1  C           0       0.264  16.747  -1.117  0.00  0.00     0.241 C 
HETATM    2  O           0       0.534  17.337  -0.065  0.00  0.00    -0.271 OA
HETATM    3  N           0       0.149  17.405  -2.295  0.00  0.00    -0.346 N 
HETATM    4  H           0      -0.108  16.891  -3.129  0.00  0.00     0.163 HD
ENDROOT
BRANCH   3   5
HETATM    5  C           0       0.530  18.813  -2.393  0.00  0.00     0.176 C 
BRANCH   5   6
HETATM    6  C           0       1.202  19.127  -3.739  0.00  0.00     0.036 C 
BRANCH   6   7
HETATM    7  C           0       2.641  19.613  -3.535  0.00  0.00     0.023 C 
BRANCH   7   8
HETATM    8  C           0       3.335  19.019  -2.309  0.00  0.00     0.138 C 
BRANCH   8   9
HETATM    9  N           0       3.878  20.130  -1.531  0.00  0.00    -0.227 N 
HETATM   10  C           0       3.392  20.619  -0.394  0.00  0.00     0.665 C 
HETATM   11  N           0       2.260  20.151   0.149  0.00  0.00    -0.235 N 
HETATM   12  N           0       4.086  21.603   0.208  0.00  0.00    -0.235 N 
HETATM   13  H           0       1.982  20.429   1.078  0.00  0.00     0.174 HD
HETATM   14  H           0       1.782  19.363  -0.257  0.00  0.00     0.174 HD
HETATM   15  H           0       3.652  22.167   0.921  0.00  0.00     0.174 HD
HETATM   16  H           0       4.861  21.995  -0.333  0.00  0.00     0.174 HD
HETATM   17  H           0       4.715  20.628  -1.878  0.00  0.00     0.177 HD
ENDBRANCH   8   9
ENDBRANCH   7   8
ENDBRANCH   6   7
ENDBRANCH   5   6
BRANCH   5  18
HETATM   18  C           0      -0.575  19.825  -2.017  0.00  0.00     0.243 C 
HETATM   19  N           0      -1.886  19.521  -2.219  0.00  0.00    -0.337 N 
HETATM   20  C           0      -2.924  20.450  -1.740  0.00  0.00     0.179 C 
HETATM   21  C           0      -2.444  18.605  -3.238  0.00  0.00     0.127 C 
HETATM   22  C           0      -4.123  20.239  -2.705  0.00  0.00     0.037 C 
HETATM   23  C           0      -3.529  19.466  -3.893  0.00  0.00     0.022 C 
HETATM   24  O           0      -0.221  20.873  -1.471  0.00  0.00    -0.271 OA
BRANCH  20  25
HETATM   25  C           0      -3.363  20.234  -0.281  0.00  0.00     0.241 C 
HETATM   26  N           0      -3.444  18.958   0.175  0.00  0.00    -0.344 N 
HETATM   27  H           0      -3.207  18.185  -0.442  0.00  0.00     0.163 HD
HETATM   28  O           0      -3.637  21.218   0.410  0.00  0.00    -0.271 OA
BRANCH  26  29
HETATM   29  C           0      -4.024  18.641   1.472  0.00  0.00     0.200 C 
BRANCH  29  30
HETATM   30  C           0      -3.022  18.283   2.586  0.00  0.00     0.242 C 
HETATM   31  N           0      -1.779  17.934   2.226  0.00  0.00    -0.354 N 
HETATM   32  H           0      -1.459  17.944   1.260  0.00  0.00     0.162 HD
HETATM   33  O           0      -3.402  18.327   3.766  0.00  0.00    -0.271 OA
BRANCH  31  34
HETATM   34  C           0      -0.728  17.622   3.177  0.00  0.00     0.203 C 
BRANCH  34  35
HETATM   35  C           0       0.169  18.869   3.423  0.00  0.00     0.307 C 
HETATM   36  O           0       0.512  19.082   4.617  0.00  0.00    -0.186 OA
HETATM   37  O           0       0.455  19.530   2.396  0.00  0.00    -0.186 OA
ENDBRANCH  34  35
ENDBRANCH  31  34
ENDBRANCH  29  30
BRANCH  29  38
HETATM   38  C           0      -5.076  17.518   1.349  0.00  0.00     0.199 C 
BRANCH  38  39
HETATM   39  O           0      -4.583  16.257   1.763  0.00  0.00    -0.398 OA
HETATM   40  H           0      -3.612  16.247   1.703  0.00  0.00     0.209 HD
ENDBRANCH  38  39
ENDBRANCH  29  38
ENDBRANCH  26  29
ENDBRANCH  20  25
ENDBRANCH   5  18
ENDBRANCH   3   5
BRANCH   1  41
HETATM   41  C           0       0.092  15.214  -1.152  0.00  0.00     0.185 C 
BRANCH  41  42
HETATM   42  C           0       1.172  14.517  -2.000  0.00  0.00     0.137 C 
BRANCH  42  43
HETATM   43  C           0       2.610  14.789  -1.558  0.00  0.00     0.217 C 
HETATM   44  N           0       3.359  15.430  -2.482  0.00  0.00    -0.370 N 
HETATM   45  H           0       4.344  15.541  -2.283  0.00  0.00     0.159 HD
HETATM   46  H           0       3.012  15.649  -3.423  0.00  0.00     0.159 HD
HETATM   47  O           0       3.039  14.414  -0.464  0.00  0.00    -0.274 OA
ENDBRANCH  42  43
ENDBRANCH  41  42
BRANCH  41  48
HETATM   48  N           0      -1.204  14.818  -1.690  0.00  0.00    -0.346 N 
HETATM   49  H           0      -1.228  14.363  -2.593  0.00  0.00     0.163 HD
HETATM   50  C           0      -2.381  15.109  -1.099  0.00  0.00     0.241 C 
HETATM   51  O           0      -2.472  15.763  -0.053  0.00  0.00    -0.271 OA
BRANCH  50  52
HETATM   52  C           0      -3.648  14.556  -1.779  0.00  0.00     0.177 C 
BRANCH  52  53
HETATM   53  N           0      -4.289  13.507  -0.992  0.00  0.00    -0.346 N 
HETATM   54  H           0      -4.508  13.691  -0.021  0.00  0.00     0.163 HD
HETATM   55  C           0      -4.713  12.344  -1.554  0.00  0.00     0.236 C 
HETATM   56  O           0      -4.589  12.094  -2.751  0.00  0.00    -0.272 OA
BRANCH  55  57
HETATM   57  C           0      -5.394  11.337  -0.617  0.00  0.00     0.225 C 
BRANCH  57  58
HETATM   58  N           0      -4.481  10.372  -0.008  0.00  0.00    -0.351 N 
HETATM   59  H           0      -3.518  10.391  -0.312  0.00  0.00     0.163 HD
HETATM   60  C           0      -4.862   9.711   1.111  0.00  0.00     0.248 C 
HETATM   61  O           0      -5.998   9.836   1.580  0.00  0.00    -0.271 OA
BRANCH  60  62
HETATM   62  C           0      -3.894   8.753   1.817  0.00  0.00     0.275 C 
BRANCH  62  63
HETATM   63  N           0      -3.569   9.177   3.240  0.00  0.00    -0.066 N 
HETATM   64  H           0      -3.161  10.117   3.287  0.00  0.00     0.275 HD
HETATM   65  H           0      -4.373   9.148   3.873  0.00  0.00     0.275 HD
HETATM   66  H           0      -2.874   8.536   3.635  0.00  0.00     0.275 HD
ENDBRANCH  62  63
BRANCH  62  67
HETATM   67  C           0      -4.335   7.281   1.824  0.00  0.00     0.053 C 
BRANCH  67  68
HETATM   68  C           0      -4.800   6.765   3.191  0.00  0.00     0.115 C 
BRANCH  68  69
HETATM   69  C           0      -6.238   7.123   3.616  0.00  0.00     0.172 C 
HETATM   70  O           0      -6.420   8.109   4.377  0.00  0.00    -0.648 OA
HETATM   71  O           0      -7.156   6.361   3.170  0.00  0.00    -0.648 OA
ENDBRANCH  68  69
ENDBRANCH  67  68
ENDBRANCH  62  67
ENDBRANCH  60  62
ENDBRANCH  57  58
ENDBRANCH  55  57
ENDBRANCH  52  53
BRANCH  52  72
HETATM   72  C           0      -4.678  15.673  -2.065  0.00  0.00     0.038 C 
BRANCH  72  73
HETATM   73  C           0      -5.305  15.702  -3.472  0.00  0.00    -0.020 C 
HETATM   74  C           0      -4.376  15.113  -4.543  0.00  0.00     0.009 C 
HETATM   75  C           0      -6.647  14.954  -3.441  0.00  0.00     0.009 C 
ENDBRANCH  72  73
ENDBRANCH  52  72
ENDBRANCH  50  52
ENDBRANCH  41  48
ENDBRANCH   1  41
TORSDOF 28
ENDMDL
MODEL 7
REMARK VINA RESULT:      -4.3     31.910     35.909
REMARK  28 active torsions:
REMARK  status: ('A' for Active; 'I' for Inactive)
REMARK       I    between atoms: C_1  and  N_3 
REMARK    1  A    between atoms: C_1  and  C_41 
REMARK    2  A    between atoms: N_3  and  C_5 
REMARK    3  A    between atoms: C_5  and  C_6 
REMARK    4  A    between atoms: C_5  and  C_18 
REMARK       I    between atoms: C_18  and  N_19 
REMARK    5  A    between atoms: C_20  and  C_25 
REMARK       I    between atoms: C_25  and  N_26 
REMARK    6  A    between atoms: N_26  and  C_29 
REMARK    7  A    between atoms: C_29  and  C_30 
REMARK    8  A    between atoms: C_29  and  C_38 
REMARK       I    between atoms: C_30  and  N_31 
REMARK    9  A    between atoms: N_31  and  C_34 
REMARK   10  A    between atoms: C_34  and  C_35 
REMARK   11  A    between atoms: C_38  and  O_39 
REMARK   12  A    between atoms: C_6  and  C_7 
REMARK   13  A    between atoms: C_7  and  C_8 
REMARK   14  A    between atoms: C_8  and  N_9 
REMARK       I    between atoms: N_9  and  C_10 
REMARK       I    between atoms: C_10  and  N_12 
REMARK   15  A    between atoms: C_41  and  C_42 
REMARK   16  A    between atoms: C_41  and  N_48 
REMARK       I    between atoms: N_48  and  C_50 
REMARK   17  A    between atoms: C_50  and  C_52 
REMARK   18  A    between atoms: C_52  and  N_53 
REMARK   19  A    between atoms: C_52  and  C_72 
REMARK       I    between atoms: N_53  and  C_55 
REMARK   20  A    between atoms: C_55  and  C_57 
REMARK   21  A    between atoms: C_57  and  N_58 
REMARK       I    between atoms: N_58  and  C_60 
REMARK   22  A    between atoms: C_60  and  C_62 
REMARK   23  A    between atoms: C_62  and  N_63 
REMARK   24  A    between atoms: C_62  and  C_67 
REMARK   25  A    between atoms: C_67  and  C_68 
REMARK   26  A    between atoms: C_68  and  C_69 
REMARK   27  A    between atoms: C_72  and  C_73 
REMARK   28  A    between atoms: C_42  and  C_43 
REMARK       I    between atoms: C_43  and  N_44 
ROOT
HETATM    1  C           0       0.899  16.893  -1.601  0.00  0.00     0.241 C 
HETATM    2  O           0       1.303  17.560  -0.641  0.00  0.00    -0.271 OA
HETATM    3  N           0       0.789  17.423  -2.842  0.00  0.00    -0.346 N 
HETATM    4  H           0       0.421  16.854  -3.594  0.00  0.00     0.163 HD
ENDROOT
BRANCH   3   5
HETATM    5  C           0       1.327  18.753  -3.125  0.00  0.00     0.176 C 
BRANCH   5   6
HETATM    6  C           0       1.976  18.817  -4.518  0.00  0.00     0.036 C 
BRANCH   6   7
HETATM    7  C           0       3.410  18.276  -4.481  0.00  0.00     0.023 C 
BRANCH   7   8
HETATM    8  C           0       4.478  19.346  -4.257  0.00  0.00     0.138 C 
BRANCH   8   9
HETATM    9  N           0       4.819  19.334  -2.837  0.00  0.00    -0.227 N 
HETATM   10  C           0       4.499  20.254  -1.932  0.00  0.00     0.665 C 
HETATM   11  N           0       3.843  21.374  -2.267  0.00  0.00    -0.235 N 
HETATM   12  N           0       4.846  20.019  -0.654  0.00  0.00    -0.235 N 
HETATM   13  H           0       3.482  21.991  -1.555  0.00  0.00     0.174 HD
HETATM   14  H           0       3.513  21.516  -3.208  0.00  0.00     0.174 HD
HETATM   15  H           0       4.849  20.770   0.018  0.00  0.00     0.174 HD
HETATM   16  H           0       5.456  19.213  -0.501  0.00  0.00     0.174 HD
HETATM   17  H           0       5.387  18.556  -2.460  0.00  0.00     0.177 HD
ENDBRANCH   8   9
ENDBRANCH   7   8
ENDBRANCH   6   7
ENDBRANCH   5   6
BRANCH   5  18
HETATM   18  C           0       0.364  19.929  -2.852  0.00  0.00     0.243 C 
HETATM   19  N           0      -0.979  19.721  -2.794  0.00  0.00    -0.337 N 
HETATM   20  C           0      -1.865  20.833  -2.410  0.00  0.00     0.179 C 
HETATM   21  C           0      -1.750  18.662  -3.481  0.00  0.00     0.127 C 
HETATM   22  C           0      -3.213  20.533  -3.124  0.00  0.00     0.037 C 
HETATM   23  C           0      -2.865  19.459  -4.166  0.00  0.00     0.022 C 
HETATM   24  O           0       0.868  21.032  -2.623  0.00  0.00    -0.271 OA
BRANCH  20  25
HETATM   25  C           0      -2.083  20.995  -0.896  0.00  0.00     0.241 C 
HETATM   26  N           0      -1.171  20.437  -0.060  0.00  0.00    -0.344 N 
HETATM   27  H           0      -0.370  19.941  -0.444  0.00  0.00     0.163 HD
HETATM   28  O           0      -3.078  21.607  -0.500  0.00  0.00    -0.271 OA
BRANCH  26  29
HETATM   29  C           0      -1.384  20.374   1.379  0.00  0.00     0.200 C 
BRANCH  29  30
HETATM   30  C           0      -0.348  21.118   2.244  0.00  0.00     0.242 C 
HETATM   31  N           0       0.950  20.858   2.035  0.00  0.00    -0.354 N 
HETATM   32  H           0       1.278  20.234   1.302  0.00  0.00     0.162 HD
HETATM   33  O           0      -0.754  21.921   3.099  0.00  0.00    -0.271 OA
BRANCH  31  34
HETATM   34  C           0       2.024  21.525   2.746  0.00  0.00     0.203 C 
BRANCH  34  35
HETATM   35  C           0       3.122  21.997   1.750  0.00  0.00     0.307 C 
HETATM   36  O           0       2.796  22.023   0.533  0.00  0.00    -0.186 OA
HETATM   37  O           0       4.220  22.304   2.274  0.00  0.00    -0.186 OA
ENDBRANCH  34  35
ENDBRANCH  31  34
ENDBRANCH  29  30
BRANCH  29  38
HETATM   38  C           0      -1.496  18.911   1.859  0.00  0.00     0.199 C 
BRANCH  38  39
HETATM   39  O           0      -1.329  17.975   0.810  0.00  0.00    -0.398 OA
HETATM   40  H           0      -2.079  18.033   0.194  0.00  0.00     0.209 HD
ENDBRANCH  38  39
ENDBRANCH  29  38
ENDBRANCH  26  29
ENDBRANCH  20  25
ENDBRANCH   5  18
ENDBRANCH   3   5
BRANCH   1  41
HETATM   41  C           0       0.544  15.400  -1.442  0.00  0.00     0.185 C 
BRANCH  41  42
HETATM   42  C           0       1.557  14.475  -2.144  0.00  0.00     0.137 C 
BRANCH  42  43
HETATM   43  C           0       3.009  14.660  -1.702  0.00  0.00     0.217 C 
HETATM   44  N           0       3.829  15.110  -2.676  0.00  0.00    -0.370 N 
HETATM   45  H           0       4.817  15.151  -2.468  0.00  0.00     0.159 HD
HETATM   46  H           0       3.517  15.247  -3.645  0.00  0.00     0.159 HD
HETATM   47  O           0       3.385  14.381  -0.561  0.00  0.00    -0.274 OA
ENDBRANCH  42  43
ENDBRANCH  41  42
BRANCH  41  48
HETATM   48  N           0      -0.773  15.088  -1.983  0.00  0.00    -0.346 N 
HETATM   49  H           0      -0.854  14.914  -2.976  0.00  0.00     0.163 HD
HETATM   50  C           0      -1.907  15.111  -1.252  0.00  0.00     0.241 C 
HETATM   51  O           0      -1.937  15.424  -0.056  0.00  0.00    -0.271 OA
BRANCH  50  52
HETATM   52  C           0      -3.201  14.691  -1.975  0.00  0.00     0.177 C 
BRANCH  52  53
HETATM   53  N           0      -4.046  13.833  -1.151  0.00  0.00    -0.346 N 
HETATM   54  H           0      -4.320  14.157  -0.232  0.00  0.00     0.163 HD
HETATM   55  C           0      -4.576  12.675  -1.627  0.00  0.00     0.236 C 
HETATM   56  O           0      -4.386  12.272  -2.772  0.00  0.00    -0.272 OA
BRANCH  55  57
HETATM   57  C           0      -5.468  11.881  -0.662  0.00  0.00     0.225 C 
BRANCH  57  58
HETATM   58  N           0      -4.871  10.637  -0.180  0.00  0.00    -0.351 N 
HETATM   59  H           0      -3.928  10.432  -0.478  0.00  0.00     0.163 HD
HETATM   60  C           0      -5.455   9.973   0.845  0.00  0.00     0.248 C 
HETATM   61  O           0      -6.532  10.344   1.324  0.00  0.00    -0.271 OA
BRANCH  60  62
HETATM   62  C           0      -4.807   8.710   1.424  0.00  0.00     0.275 C 
BRANCH  62  63
HETATM   63  N           0      -3.645   8.199   0.588  0.00  0.00    -0.066 N 
HETATM   64  H           0      -2.925   8.914   0.437  0.00  0.00     0.275 HD
HETATM   65  H           0      -3.191   7.367   0.977  0.00  0.00     0.275 HD
HETATM   66  H           0      -3.987   7.928  -0.340  0.00  0.00     0.275 HD
ENDBRANCH  62  63
BRANCH  62  67
HETATM   67  C           0      -4.352   8.833   2.888  0.00  0.00     0.053 C 
BRANCH  67  68
HETATM   68  C           0      -5.339   8.256   3.909  0.00  0.00     0.115 C 
BRANCH  68  69
HETATM   69  C           0      -5.914   6.858   3.607  0.00  0.00     0.172 C 
HETATM   70  O           0      -5.139   5.866   3.623  0.00  0.00    -0.648 OA
HETATM   71  O           0      -7.157   6.815   3.335  0.00  0.00    -0.648 OA
ENDBRANCH  68  69
ENDBRANCH  67  68
ENDBRANCH  62  67
ENDBRANCH  60  62
ENDBRANCH  57  58
ENDBRANCH  55  57
ENDBRANCH  52  53
BRANCH  52  72
HETATM   72  C           0      -4.022  15.918  -2.434  0.00  0.00     0.038 C 
BRANCH  72  73
HETATM   73  C           0      -4.966  16.554  -1.395  0.00  0.00    -0.020 C 
HETATM   74  C           0      -4.424  17.880  -0.841  0.00  0.00     0.009 C 
HETATM   75  C           0      -6.353  16.752  -2.028  0.00  0.00     0.009 C 
ENDBRANCH  72  73
ENDBRANCH  52  72
ENDBRANCH  50  52
ENDBRANCH  41  48
ENDBRANCH   1  41
TORSDOF 28
ENDMDL
MODEL 8
REMARK VINA RESULT:      -4.2      2.416      5.207
REMARK  28 active torsions:
REMARK  status: ('A' for Active; 'I' for Inactive)
REMARK       I    between atoms: C_1  and  N_3 
REMARK    1  A    between atoms: C_1  and  C_41 
REMARK    2  A    between atoms: N_3  and  C_5 
REMARK    3  A    between atoms: C_5  and  C_6 
REMARK    4  A    between atoms: C_5  and  C_18 
REMARK       I    between atoms: C_18  and  N_19 
REMARK    5  A    between atoms: C_20  and  C_25 
REMARK       I    between atoms: C_25  and  N_26 
REMARK    6  A    between atoms: N_26  and  C_29 
REMARK    7  A    between atoms: C_29  and  C_30 
REMARK    8  A    between atoms: C_29  and  C_38 
REMARK       I    between atoms: C_30  and  N_31 
REMARK    9  A    between atoms: N_31  and  C_34 
REMARK   10  A    between atoms: C_34  and  C_35 
REMARK   11  A    between atoms: C_38  and  O_39 
REMARK   12  A    between atoms: C_6  and  C_7 
REMARK   13  A    between atoms: C_7  and  C_8 
REMARK   14  A    between atoms: C_8  and  N_9 
REMARK       I    between atoms: N_9  and  C_10 
REMARK       I    between atoms: C_10  and  N_12 
REMARK   15  A    between atoms: C_41  and  C_42 
REMARK   16  A    between atoms: C_41  and  N_48 
REMARK       I    between atoms: N_48  and  C_50 
REMARK   17  A    between atoms: C_50  and  C_52 
REMARK   18  A    between atoms: C_52  and  N_53 
REMARK   19  A    between atoms: C_52  and  C_72 
REMARK       I    between atoms: N_53  and  C_55 
REMARK   20  A    between atoms: C_55  and  C_57 
REMARK   21  A    between atoms: C_57  and  N_58 
REMARK       I    between atoms: N_58  and  C_60 
REMARK   22  A    between atoms: C_60  and  C_62 
REMARK   23  A    between atoms: C_62  and  N_63 
REMARK   24  A    between atoms: C_62  and  C_67 
REMARK   25  A    between atoms: C_67  and  C_68 
REMARK   26  A    between atoms: C_68  and  C_69 
REMARK   27  A    between atoms: C_72  and  C_73 
REMARK   28  A    between atoms: C_42  and  C_43 
REMARK       I    between atoms: C_43  and  N_44 
ROOT
HETATM    1  C           0      14.518 -17.483   0.047  0.00  0.00     0.241 C 
HETATM    2  O           0      15.680 -17.418  -0.371  0.00  0.00    -0.271 OA
HETATM    3  N           0      13.873 -16.396   0.531  0.00  0.00    -0.346 N 
HETATM    4  H           0      12.934 -16.498   0.897  0.00  0.00     0.163 HD
ENDROOT
BRANCH   3   5
HETATM    5  C           0      14.466 -15.067   0.398  0.00  0.00     0.176 C 
BRANCH   5   6
HETATM    6  C           0      13.391 -13.982   0.220  0.00  0.00     0.036 C 
BRANCH   6   7
HETATM    7  C           0      12.995 -13.837  -1.254  0.00  0.00     0.023 C 
BRANCH   7   8
HETATM    8  C           0      11.509 -13.561  -1.479  0.00  0.00     0.138 C 
BRANCH   8   9
HETATM    9  N           0      11.012 -14.572  -2.408  0.00  0.00    -0.227 N 
HETATM   10  C           0      10.304 -15.656  -2.103  0.00  0.00     0.665 C 
HETATM   11  N           0      10.010 -15.972  -0.834  0.00  0.00    -0.235 N 
HETATM   12  N           0       9.875 -16.428  -3.119  0.00  0.00    -0.235 N 
HETATM   13  H           0       9.356 -16.712  -0.627  0.00  0.00     0.174 HD
HETATM   14  H           0      10.261 -15.356  -0.078  0.00  0.00     0.174 HD
HETATM   15  H           0       9.555 -17.367  -2.943  0.00  0.00     0.174 HD
HETATM   16  H           0      10.250 -16.195  -4.042  0.00  0.00     0.174 HD
HETATM   17  H           0      11.229 -14.485  -3.416  0.00  0.00     0.177 HD
ENDBRANCH   8   9
ENDBRANCH   7   8
ENDBRANCH   6   7
ENDBRANCH   5   6
BRANCH   5  18
HETATM   18  C           0      15.522 -14.703   1.464  0.00  0.00     0.243 C 
HETATM   19  N           0      16.584 -13.916   1.142  0.00  0.00    -0.337 N 
HETATM   20  C           0      17.508 -13.483   2.205  0.00  0.00     0.179 C 
HETATM   21  C           0      17.219 -13.771  -0.185  0.00  0.00     0.127 C 
HETATM   22  C           0      18.874 -13.291   1.489  0.00  0.00     0.037 C 
HETATM   23  C           0      18.701 -13.996   0.134  0.00  0.00     0.022 C 
HETATM   24  O           0      15.322 -15.098   2.616  0.00  0.00    -0.271 OA
BRANCH  20  25
HETATM   25  C           0      17.098 -12.192   2.934  0.00  0.00     0.241 C 
HETATM   26  N           0      16.397 -11.263   2.236  0.00  0.00    -0.344 N 
HETATM   27  H           0      16.152 -11.440   1.265  0.00  0.00     0.163 HD
HETATM   28  O           0      17.432 -12.043   4.112  0.00  0.00    -0.271 OA
BRANCH  26  29
HETATM   29  C           0      16.125  -9.939   2.776  0.00  0.00     0.200 C 
BRANCH  29  30
HETATM   30  C           0      17.359  -9.130   3.223  0.00  0.00     0.242 C 
HETATM   31  N           0      18.502  -9.300   2.544  0.00  0.00    -0.354 N 
HETATM   32  H           0      18.575  -9.897   1.723  0.00  0.00     0.162 HD
HETATM   33  O           0      17.248  -8.362   4.190  0.00  0.00    -0.271 OA
BRANCH  31  34
HETATM   34  C           0      19.720  -8.565   2.831  0.00  0.00     0.203 C 
BRANCH  34  35
HETATM   35  C           0      20.892  -9.096   1.957  0.00  0.00     0.307 C 
HETATM   36  O           0      20.833  -8.833   0.725  0.00  0.00    -0.186 OA
HETATM   37  O           0      21.776  -9.732   2.581  0.00  0.00    -0.186 OA
ENDBRANCH  34  35
ENDBRANCH  31  34
ENDBRANCH  29  30
BRANCH  29  38
HETATM   38  C           0      15.113 -10.012   3.939  0.00  0.00     0.199 C 
BRANCH  38  39
HETATM   39  O           0      14.161  -8.965   3.905  0.00  0.00    -0.398 OA
HETATM   40  H           0      14.354  -8.368   3.161  0.00  0.00     0.209 HD
ENDBRANCH  38  39
ENDBRANCH  29  38
ENDBRANCH  26  29
ENDBRANCH  20  25
ENDBRANCH   5  18
ENDBRANCH   3   5
BRANCH   1  41
HETATM   41  C           0      13.723 -18.805  -0.007  0.00  0.00     0.185 C 
BRANCH  41  42
HETATM   42  C           0      12.377 -18.654  -0.741  0.00  0.00     0.137 C 
BRANCH  42  43
HETATM   43  C           0      11.895 -19.912  -1.463  0.00  0.00     0.217 C 
HETATM   44  N           0      11.109 -19.666  -2.534  0.00  0.00    -0.370 N 
HETATM   45  H           0      10.678 -20.461  -2.984  0.00  0.00     0.159 HD
HETATM   46  H           0      10.805 -18.720  -2.794  0.00  0.00     0.159 HD
HETATM   47  O           0      12.180 -21.043  -1.064  0.00  0.00    -0.274 OA
ENDBRANCH  42  43
ENDBRANCH  41  42
BRANCH  41  48
HETATM   48  N           0      13.435 -19.327   1.323  0.00  0.00    -0.346 N 
HETATM   49  H           0      13.944 -20.143   1.638  0.00  0.00     0.163 HD
HETATM   50  C           0      12.461 -18.845   2.122  0.00  0.00     0.241 C 
HETATM   51  O           0      11.702 -17.927   1.788  0.00  0.00    -0.271 OA
BRANCH  50  52
HETATM   52  C           0      12.341 -19.480   3.521  0.00  0.00     0.177 C 
BRANCH  52  53
HETATM   53  N           0      12.170 -18.481   4.572  0.00  0.00    -0.346 N 
HETATM   54  H           0      11.232 -18.216   4.846  0.00  0.00     0.163 HD
HETATM   55  C           0      13.226 -17.992   5.277  0.00  0.00     0.236 C 
HETATM   56  O           0      14.384 -18.351   5.084  0.00  0.00    -0.272 OA
BRANCH  55  57
HETATM   57  C           0      12.902 -16.966   6.371  0.00  0.00     0.225 C 
BRANCH  57  58
HETATM   58  N           0      12.956 -15.575   5.924  0.00  0.00    -0.351 N 
HETATM   59  H           0      13.870 -15.152   5.841  0.00  0.00     0.163 HD
HETATM   60  C           0      11.857 -15.011   5.371  0.00  0.00     0.248 C 
HETATM   61  O           0      10.780 -15.614   5.317  0.00  0.00    -0.271 OA
BRANCH  60  62
HETATM   62  C           0      11.909 -13.581   4.820  0.00  0.00     0.275 C 
BRANCH  62  63
HETATM   63  N           0      13.055 -13.359   3.847  0.00  0.00    -0.066 N 
HETATM   64  H           0      13.548 -14.228   3.615  0.00  0.00     0.275 HD
HETATM   65  H           0      12.773 -12.910   2.971  0.00  0.00     0.275 HD
HETATM   66  H           0      13.748 -12.735   4.274  0.00  0.00     0.275 HD
ENDBRANCH  62  63
BRANCH  62  67
HETATM   67  C           0      10.604 -13.093   4.171  0.00  0.00     0.053 C 
BRANCH  67  68
HETATM   68  C           0      10.618 -13.097   2.638  0.00  0.00     0.115 C 
BRANCH  68  69
HETATM   69  C           0       9.640 -14.060   1.936  0.00  0.00     0.172 C 
HETATM   70  O           0       9.594 -15.261   2.312  0.00  0.00    -0.648 OA
HETATM   71  O           0       8.948 -13.560   0.991  0.00  0.00    -0.648 OA
ENDBRANCH  68  69
ENDBRANCH  67  68
ENDBRANCH  62  67
ENDBRANCH  60  62
ENDBRANCH  57  58
ENDBRANCH  55  57
ENDBRANCH  52  53
BRANCH  52  72
HETATM   72  C           0      11.173 -20.491   3.592  0.00  0.00     0.038 C 
BRANCH  72  73
HETATM   73  C           0      11.400 -21.867   2.936  0.00  0.00    -0.020 C 
HETATM   74  C           0      11.212 -23.028   3.923  0.00  0.00     0.009 C 
HETATM   75  C           0      10.457 -22.013   1.732  0.00  0.00     0.009 C 
ENDBRANCH  72  73
ENDBRANCH  52  72
ENDBRANCH  50  52
ENDBRANCH  41  48
ENDBRANCH   1  41
TORSDOF 28
ENDMDL
MODEL 9
REMARK VINA RESULT:      -4.2     20.542     26.626
REMARK  28 active torsions:
REMARK  status: ('A' for Active; 'I' for Inactive)
REMARK       I    between atoms: C_1  and  N_3 
REMARK    1  A    between atoms: C_1  and  C_41 
REMARK    2  A    between atoms: N_3  and  C_5 
REMARK    3  A    between atoms: C_5  and  C_6 
REMARK    4  A    between atoms: C_5  and  C_18 
REMARK       I    between atoms: C_18  and  N_19 
REMARK    5  A    between atoms: C_20  and  C_25 
REMARK       I    between atoms: C_25  and  N_26 
REMARK    6  A    between atoms: N_26  and  C_29 
REMARK    7  A    between atoms: C_29  and  C_30 
REMARK    8  A    between atoms: C_29  and  C_38 
REMARK       I    between atoms: C_30  and  N_31 
REMARK    9  A    between atoms: N_31  and  C_34 
REMARK   10  A    between atoms: C_34  and  C_35 
REMARK   11  A    between atoms: C_38  and  O_39 
REMARK   12  A    between atoms: C_6  and  C_7 
REMARK   13  A    between atoms: C_7  and  C_8 
REMARK   14  A    between atoms: C_8  and  N_9 
REMARK       I    between atoms: N_9  and  C_10 
REMARK       I    between atoms: C_10  and  N_12 
REMARK   15  A    between atoms: C_41  and  C_42 
REMARK   16  A    between atoms: C_41  and  N_48 
REMARK       I    between atoms: N_48  and  C_50 
REMARK   17  A    between atoms: C_50  and  C_52 
REMARK   18  A    between atoms: C_52  and  N_53 
REMARK   19  A    between atoms: C_52  and  C_72 
REMARK       I    between atoms: N_53  and  C_55 
REMARK   20  A    between atoms: C_55  and  C_57 
REMARK   21  A    between atoms: C_57  and  N_58 
REMARK       I    between atoms: N_58  and  C_60 
REMARK   22  A    between atoms: C_60  and  C_62 
REMARK   23  A    between atoms: C_62  and  N_63 
REMARK   24  A    between atoms: C_62  and  C_67 
REMARK   25  A    between atoms: C_67  and  C_68 
REMARK   26  A    between atoms: C_68  and  C_69 
REMARK   27  A    between atoms: C_72  and  C_73 
REMARK   28  A    between atoms: C_42  and  C_43 
REMARK       I    between atoms: C_43  and  N_44 
ROOT
HETATM    1  C           0      -8.603 -26.354  -2.224  0.00  0.00     0.241 C 
HETATM    2  O           0      -8.049 -27.442  -2.421  0.00  0.00    -0.271 OA
HETATM    3  N           0      -9.445 -26.161  -1.182  0.00  0.00    -0.346 N 
HETATM    4  H           0      -9.908 -25.267  -1.075  0.00  0.00     0.163 HD
ENDROOT
BRANCH   3   5
HETATM    5  C           0      -9.577 -27.181  -0.143  0.00  0.00     0.176 C 
BRANCH   5   6
HETATM    6  C           0      -8.848 -26.773   1.148  0.00  0.00     0.036 C 
BRANCH   6   7
HETATM    7  C           0      -7.749 -25.744   0.857  0.00  0.00     0.023 C 
BRANCH   7   8
HETATM    8  C           0      -6.734 -25.575   1.987  0.00  0.00     0.138 C 
BRANCH   8   9
HETATM    9  N           0      -5.989 -26.827   2.098  0.00  0.00    -0.227 N 
HETATM   10  C           0      -4.794 -27.092   1.578  0.00  0.00     0.665 C 
HETATM   11  N           0      -4.147 -26.205   0.810  0.00  0.00    -0.235 N 
HETATM   12  N           0      -4.243 -28.287   1.859  0.00  0.00    -0.235 N 
HETATM   13  H           0      -3.186 -26.361   0.543  0.00  0.00     0.174 HD
HETATM   14  H           0      -4.520 -25.281   0.663  0.00  0.00     0.174 HD
HETATM   15  H           0      -3.472 -28.633   1.309  0.00  0.00     0.174 HD
HETATM   16  H           0      -4.853 -28.955   2.337  0.00  0.00     0.174 HD
HETATM   17  H           0      -6.410 -27.622   2.608  0.00  0.00     0.177 HD
ENDBRANCH   8   9
ENDBRANCH   7   8
ENDBRANCH   6   7
ENDBRANCH   5   6
BRANCH   5  18
HETATM   18  C           0     -11.015 -27.688   0.109  0.00  0.00     0.243 C 
HETATM   19  N           0     -11.483 -28.785  -0.545  0.00  0.00    -0.337 N 
HETATM   20  C           0     -12.811 -29.320  -0.196  0.00  0.00     0.179 C 
HETATM   21  C           0     -11.057 -29.286  -1.869  0.00  0.00     0.127 C 
HETATM   22  C           0     -13.323 -29.994  -1.499  0.00  0.00     0.037 C 
HETATM   23  C           0     -12.393 -29.458  -2.600  0.00  0.00     0.022 C 
HETATM   24  O           0     -11.680 -27.101   0.967  0.00  0.00    -0.271 OA
BRANCH  20  25
HETATM   25  C           0     -12.819 -30.326   0.968  0.00  0.00     0.241 C 
HETATM   26  N           0     -11.642 -30.579   1.597  0.00  0.00    -0.344 N 
HETATM   27  H           0     -10.797 -30.100   1.298  0.00  0.00     0.163 HD
HETATM   28  O           0     -13.881 -30.872   1.276  0.00  0.00    -0.271 OA
BRANCH  26  29
HETATM   29  C           0     -11.510 -31.644   2.580  0.00  0.00     0.200 C 
BRANCH  29  30
HETATM   30  C           0     -10.630 -31.323   3.803  0.00  0.00     0.242 C 
HETATM   31  N           0      -9.502 -30.628   3.602  0.00  0.00    -0.354 N 
HETATM   32  H           0      -9.232 -30.263   2.691  0.00  0.00     0.162 HD
HETATM   33  O           0     -10.994 -31.723   4.920  0.00  0.00    -0.271 OA
BRANCH  31  34
HETATM   34  C           0      -8.612 -30.219   4.672  0.00  0.00     0.203 C 
BRANCH  34  35
HETATM   35  C           0      -7.707 -29.043   4.205  0.00  0.00     0.307 C 
HETATM   36  O           0      -6.576 -29.358   3.745  0.00  0.00    -0.186 OA
HETATM   37  O           0      -8.207 -27.900   4.338  0.00  0.00    -0.186 OA
ENDBRANCH  34  35
ENDBRANCH  31  34
ENDBRANCH  29  30
BRANCH  29  38
HETATM   38  C           0     -11.014 -32.949   1.920  0.00  0.00     0.199 C 
BRANCH  38  39
HETATM   39  O           0      -9.614 -32.958   1.709  0.00  0.00    -0.398 OA
HETATM   40  H           0      -9.180 -32.366   2.347  0.00  0.00     0.209 HD
ENDBRANCH  38  39
ENDBRANCH  29  38
ENDBRANCH  26  29
ENDBRANCH  20  25
ENDBRANCH   5  18
ENDBRANCH   3   5
BRANCH   1  41
HETATM   41  C           0      -8.325 -25.139  -3.134  0.00  0.00     0.185 C 
BRANCH  41  42
HETATM   42  C           0      -6.885 -25.130  -3.681  0.00  0.00     0.137 C 
BRANCH  42  43
HETATM   43  C           0      -5.890 -24.316  -2.854  0.00  0.00     0.217 C 
HETATM   44  N           0      -5.294 -23.314  -3.536  0.00  0.00    -0.370 N 
HETATM   45  H           0      -4.553 -22.812  -3.068  0.00  0.00     0.159 HD
HETATM   46  H           0      -5.446 -23.160  -4.540  0.00  0.00     0.159 HD
HETATM   47  O           0      -5.639 -24.592  -1.678  0.00  0.00    -0.274 OA
ENDBRANCH  42  43
ENDBRANCH  41  42
BRANCH  41  48
HETATM   48  N           0      -8.534 -23.874  -2.441  0.00  0.00    -0.346 N 
HETATM   49  H           0      -8.215 -23.794  -1.485  0.00  0.00     0.163 HD
HETATM   50  C           0      -9.213 -22.835  -2.969  0.00  0.00     0.241 C 
HETATM   51  O           0      -9.745 -22.868  -4.085  0.00  0.00    -0.271 OA
BRANCH  50  52
HETATM   52  C           0      -9.280 -21.553  -2.116  0.00  0.00     0.177 C 
BRANCH  52  53
HETATM   53  N           0      -8.350 -21.583  -0.992  0.00  0.00    -0.346 N 
HETATM   54  H           0      -7.356 -21.619  -1.182  0.00  0.00     0.163 HD
HETATM   55  C           0      -8.771 -21.438   0.293  0.00  0.00     0.236 C 
HETATM   56  O           0      -9.949 -21.271   0.597  0.00  0.00    -0.272 OA
BRANCH  55  57
HETATM   57  C           0      -7.685 -21.464   1.377  0.00  0.00     0.225 C 
BRANCH  57  58
HETATM   58  N           0      -6.419 -22.054   0.945  0.00  0.00    -0.351 N 
HETATM   59  H           0      -6.255 -22.116  -0.050  0.00  0.00     0.163 HD
HETATM   60  C           0      -5.420 -22.218   1.844  0.00  0.00     0.248 C 
HETATM   61  O           0      -5.582 -21.964   3.042  0.00  0.00    -0.271 OA
BRANCH  60  62
HETATM   62  C           0      -4.055 -22.758   1.401  0.00  0.00     0.275 C 
BRANCH  62  63
HETATM   63  N           0      -3.735 -22.449  -0.052  0.00  0.00    -0.066 N 
HETATM   64  H           0      -3.120 -23.152  -0.477  0.00  0.00     0.275 HD
HETATM   65  H           0      -4.564 -22.351  -0.646  0.00  0.00     0.275 HD
HETATM   66  H           0      -3.239 -21.554  -0.109  0.00  0.00     0.275 HD
ENDBRANCH  62  63
BRANCH  62  67
HETATM   67  C           0      -2.872 -22.314   2.276  0.00  0.00     0.053 C 
BRANCH  67  68
HETATM   68  C           0      -1.728 -23.332   2.358  0.00  0.00     0.115 C 
BRANCH  68  69
HETATM   69  C           0      -2.093 -24.751   2.837  0.00  0.00     0.172 C 
HETATM   70  O           0      -3.010 -24.888   3.688  0.00  0.00    -0.648 OA
HETATM   71  O           0      -1.408 -25.701   2.336  0.00  0.00    -0.648 OA
ENDBRANCH  68  69
ENDBRANCH  67  68
ENDBRANCH  62  67
ENDBRANCH  60  62
ENDBRANCH  57  58
ENDBRANCH  55  57
ENDBRANCH  52  53
BRANCH  52  72
HETATM   72  C           0      -9.006 -20.289  -2.963  0.00  0.00     0.038 C 
BRANCH  72  73
HETATM   73  C           0     -10.027 -19.140  -2.853  0.00  0.00    -0.020 C 
HETATM   74  C           0      -9.367 -17.756  -2.935  0.00  0.00     0.009 C 
HETATM   75  C           0     -11.091 -19.305  -3.950  0.00  0.00     0.009 C 
ENDBRANCH  72  73
ENDBRANCH  52  72
ENDBRANCH  50  52
ENDBRANCH  41  48
ENDBRANCH   1  41
TORSDOF 28
ENDMDL
