MODEL 1
REMARK VINA RESULT:      -6.0      0.000      0.000
REMARK  28 active torsions:
REMARK  status: ('A' for Active; 'I' for Inactive)
REMARK       I    between atoms: C_1  and  N_3 
REMARK    1  A    between atoms: C_1  and  C_41 
REMARK    2  A    between atoms: N_3  and  C_5 
REMARK    3  A    between atoms: C_5  and  C_6 
REMARK    4  A    between atoms: C_5  and  C_18 
REMARK       I    between atoms: C_18  and  N_19 
REMARK    5  A    between atoms: C_20  and  C_25 
REMARK       I    between atoms: C_25  and  N_26 
REMARK    6  A    between atoms: N_26  and  C_29 
REMARK    7  A    between atoms: C_29  and  C_30 
REMARK    8  A    between atoms: C_29  and  C_38 
REMARK       I    between atoms: C_30  and  N_31 
REMARK    9  A    between atoms: N_31  and  C_34 
REMARK   10  A    between atoms: C_34  and  C_35 
REMARK   11  A    between atoms: C_38  and  O_39 
REMARK   12  A    between atoms: C_6  and  C_7 
REMARK   13  A    between atoms: C_7  and  C_8 
REMARK   14  A    between atoms: C_8  and  N_9 
REMARK       I    between atoms: N_9  and  C_10 
REMARK       I    between atoms: C_10  and  N_12 
REMARK   15  A    between atoms: C_41  and  C_42 
REMARK   16  A    between atoms: C_41  and  N_48 
REMARK       I    between atoms: N_48  and  C_50 
REMARK   17  A    between atoms: C_50  and  C_52 
REMARK   18  A    between atoms: C_52  and  N_53 
REMARK   19  A    between atoms: C_52  and  C_72 
REMARK       I    between atoms: N_53  and  C_55 
REMARK   20  A    between atoms: C_55  and  C_57 
REMARK   21  A    between atoms: C_57  and  N_58 
REMARK       I    between atoms: N_58  and  C_60 
REMARK   22  A    between atoms: C_60  and  C_62 
REMARK   23  A    between atoms: C_62  and  N_63 
REMARK   24  A    between atoms: C_62  and  C_67 
REMARK   25  A    between atoms: C_67  and  C_68 
REMARK   26  A    between atoms: C_68  and  C_69 
REMARK   27  A    between atoms: C_72  and  C_73 
REMARK   28  A    between atoms: C_42  and  C_43 
REMARK       I    between atoms: C_43  and  N_44 
ROOT
HETATM    1  C           0      -0.497 -15.482   9.010  0.00  0.00     0.241 C 
HETATM    2  O           0      -0.491 -15.117   7.829  0.00  0.00    -0.271 OA
HETATM    3  N           0      -0.139 -16.738   9.370  0.00  0.00    -0.346 N 
HETATM    4  H           0      -0.191 -17.009  10.344  0.00  0.00     0.163 HD
ENDROOT
BRANCH   3   5
HETATM    5  C           0       0.449 -17.646   8.387  0.00  0.00     0.176 C 
BRANCH   5   6
HETATM    6  C           0       1.983 -17.546   8.370  0.00  0.00     0.036 C 
BRANCH   6   7
HETATM    7  C           0       2.484 -17.018   7.021  0.00  0.00     0.023 C 
BRANCH   7   8
HETATM    8  C           0       4.006 -16.928   6.909  0.00  0.00     0.138 C 
BRANCH   8   9
HETATM    9  N           0       4.528 -18.292   6.921  0.00  0.00    -0.227 N 
HETATM   10  C           0       5.078 -18.943   5.901  0.00  0.00     0.665 C 
HETATM   11  N           0       5.160 -18.400   4.679  0.00  0.00    -0.235 N 
HETATM   12  N           0       5.568 -20.174   6.139  0.00  0.00    -0.235 N 
HETATM   13  H           0       5.704 -18.844   3.954  0.00  0.00     0.174 HD
HETATM   14  H           0       4.866 -17.450   4.516  0.00  0.00     0.174 HD
HETATM   15  H           0       5.768 -20.798   5.372  0.00  0.00     0.174 HD
HETATM   16  H           0       5.349 -20.569   7.056  0.00  0.00     0.174 HD
HETATM   17  H           0       4.462 -18.851   7.789  0.00  0.00     0.177 HD
ENDBRANCH   8   9
ENDBRANCH   7   8
ENDBRANCH   6   7
ENDBRANCH   5   6
BRANCH   5  18
HETATM   18  C           0      -0.062 -19.103   8.444  0.00  0.00     0.243 C 
HETATM   19  N           0       0.084 -19.927   7.371  0.00  0.00    -0.337 N 
HETATM   20  C           0      -0.299 -21.344   7.494  0.00  0.00     0.179 C 
HETATM   21  C           0       0.163 -19.535   5.948  0.00  0.00     0.127 C 
HETATM   22  C           0      -0.712 -21.770   6.058  0.00  0.00     0.037 C 
HETATM   23  C           0      -0.886 -20.445   5.299  0.00  0.00     0.022 C 
HETATM   24  O           0      -0.537 -19.495   9.514  0.00  0.00    -0.271 OA
BRANCH  20  25
HETATM   25  C           0       0.806 -22.270   8.032  0.00  0.00     0.241 C 
HETATM   26  N           0       2.094 -21.958   7.739  0.00  0.00    -0.344 N 
HETATM   27  H           0       2.300 -21.128   7.189  0.00  0.00     0.163 HD
HETATM   28  O           0       0.483 -23.261   8.692  0.00  0.00    -0.271 OA
BRANCH  26  29
HETATM   29  C           0       3.192 -22.865   8.042  0.00  0.00     0.200 C 
BRANCH  29  30
HETATM   30  C           0       4.367 -22.256   8.832  0.00  0.00     0.242 C 
HETATM   31  N           0       4.102 -21.697  10.021  0.00  0.00    -0.354 N 
HETATM   32  H           0       3.176 -21.704  10.442  0.00  0.00     0.162 HD
HETATM   33  O           0       5.504 -22.302   8.338  0.00  0.00    -0.271 OA
BRANCH  31  34
HETATM   34  C           0       5.123 -21.134  10.886  0.00  0.00     0.203 C 
BRANCH  34  35
HETATM   35  C           0       5.278 -19.609  10.619  0.00  0.00     0.307 C 
HETATM   36  O           0       4.210 -18.940  10.569  0.00  0.00    -0.186 OA
HETATM   37  O           0       6.459 -19.209  10.483  0.00  0.00    -0.186 OA
ENDBRANCH  34  35
ENDBRANCH  31  34
ENDBRANCH  29  30
BRANCH  29  38
HETATM   38  C           0       3.730 -23.531   6.757  0.00  0.00     0.199 C 
BRANCH  38  39
HETATM   39  O           0       4.059 -22.593   5.749  0.00  0.00    -0.398 OA
HETATM   40  H           0       5.003 -22.367   5.805  0.00  0.00     0.209 HD
ENDBRANCH  38  39
ENDBRANCH  29  38
ENDBRANCH  26  29
ENDBRANCH  20  25
ENDBRANCH   5  18
ENDBRANCH   3   5
BRANCH   1  41
HETATM   41  C           0      -0.866 -14.506  10.146  0.00  0.00     0.185 C 
BRANCH  41  42
HETATM   42  C           0      -0.936 -15.199  11.520  0.00  0.00     0.137 C 
BRANCH  42  43
HETATM   43  C           0      -0.832 -14.259  12.720  0.00  0.00     0.217 C 
HETATM   44  N           0      -0.019 -13.199  12.521  0.00  0.00    -0.370 N 
HETATM   45  H           0       0.168 -12.603  13.316  0.00  0.00     0.159 HD
HETATM   46  H           0       0.535 -13.077  11.665  0.00  0.00     0.159 HD
HETATM   47  O           0      -1.418 -14.486  13.782  0.00  0.00    -0.274 OA
ENDBRANCH  42  43
ENDBRANCH  41  42
BRANCH  41  48
HETATM   48  N           0      -2.154 -13.862   9.920  0.00  0.00    -0.346 N 
HETATM   49  H           0      -2.957 -14.449   9.735  0.00  0.00     0.163 HD
HETATM   50  C           0      -2.321 -12.525   9.850  0.00  0.00     0.241 C 
HETATM   51  O           0      -1.387 -11.719   9.946  0.00  0.00    -0.271 OA
BRANCH  50  52
HETATM   52  C           0      -3.765 -12.020   9.668  0.00  0.00     0.177 C 
BRANCH  52  53
HETATM   53  N           0      -4.058 -11.660   8.285  0.00  0.00    -0.346 N 
HETATM   54  H           0      -3.697 -12.243   7.541  0.00  0.00     0.163 HD
HETATM   55  C           0      -4.903 -10.641   7.971  0.00  0.00     0.236 C 
HETATM   56  O           0      -5.474  -9.959   8.818  0.00  0.00    -0.272 OA
BRANCH  55  57
HETATM   57  C           0      -5.143 -10.385   6.477  0.00  0.00     0.225 C 
BRANCH  57  58
HETATM   58  N           0      -6.417 -10.898   5.976  0.00  0.00    -0.351 N 
HETATM   59  H           0      -7.215 -10.281   6.027  0.00  0.00     0.163 HD
HETATM   60  C           0      -6.431 -12.019   5.218  0.00  0.00     0.248 C 
HETATM   61  O           0      -5.402 -12.672   5.013  0.00  0.00    -0.271 OA
BRANCH  60  62
HETATM   62  C           0      -7.742 -12.534   4.613  0.00  0.00     0.275 C 
BRANCH  62  63
HETATM   63  N           0      -7.588 -13.873   3.910  0.00  0.00    -0.066 N 
HETATM   64  H           0      -6.889 -13.845   3.160  0.00  0.00     0.275 HD
HETATM   65  H           0      -7.349 -14.645   4.539  0.00  0.00     0.275 HD
HETATM   66  H           0      -8.478 -14.131   3.471  0.00  0.00     0.275 HD
ENDBRANCH  62  63
BRANCH  62  67
HETATM   67  C           0      -8.917 -12.623   5.601  0.00  0.00     0.053 C 
BRANCH  67  68
HETATM   68  C           0      -8.836 -13.802   6.577  0.00  0.00     0.115 C 
BRANCH  68  69
HETATM   69  C           0      -7.842 -13.668   7.747  0.00  0.00     0.172 C 
HETATM   70  O           0      -7.131 -14.660   8.057  0.00  0.00    -0.648 OA
HETATM   71  O           0      -7.828 -12.541   8.340  0.00  0.00    -0.648 OA
ENDBRANCH  68  69
ENDBRANCH  67  68
ENDBRANCH  62  67
ENDBRANCH  60  62
ENDBRANCH  57  58
ENDBRANCH  55  57
ENDBRANCH  52  53
BRANCH  52  72
HETATM   72  C           0      -4.800 -13.064  10.148  0.00  0.00     0.038 C 
BRANCH  72  73
HETATM   73  C           0      -5.500 -12.787  11.492  0.00  0.00    -0.020 C 
HETATM   74  C           0      -6.919 -13.371  11.549  0.00  0.00     0.009 C 
HETATM   75  C           0      -4.634 -13.341  12.635  0.00  0.00     0.009 C 
ENDBRANCH  72  73
ENDBRANCH  52  72
ENDBRANCH  50  52
ENDBRANCH  41  48
ENDBRANCH   1  41
TORSDOF 28
ENDMDL
MODEL 2
REMARK VINA RESULT:      -5.9      2.652      4.276
REMARK  28 active torsions:
REMARK  status: ('A' for Active; 'I' for Inactive)
REMARK       I    between atoms: C_1  and  N_3 
REMARK    1  A    between atoms: C_1  and  C_41 
REMARK    2  A    between atoms: N_3  and  C_5 
REMARK    3  A    between atoms: C_5  and  C_6 
REMARK    4  A    between atoms: C_5  and  C_18 
REMARK       I    between atoms: C_18  and  N_19 
REMARK    5  A    between atoms: C_20  and  C_25 
REMARK       I    between atoms: C_25  and  N_26 
REMARK    6  A    between atoms: N_26  and  C_29 
REMARK    7  A    between atoms: C_29  and  C_30 
REMARK    8  A    between atoms: C_29  and  C_38 
REMARK       I    between atoms: C_30  and  N_31 
REMARK    9  A    between atoms: N_31  and  C_34 
REMARK   10  A    between atoms: C_34  and  C_35 
REMARK   11  A    between atoms: C_38  and  O_39 
REMARK   12  A    between atoms: C_6  and  C_7 
REMARK   13  A    between atoms: C_7  and  C_8 
REMARK   14  A    between atoms: C_8  and  N_9 
REMARK       I    between atoms: N_9  and  C_10 
REMARK       I    between atoms: C_10  and  N_12 
REMARK   15  A    between atoms: C_41  and  C_42 
REMARK   16  A    between atoms: C_41  and  N_48 
REMARK       I    between atoms: N_48  and  C_50 
REMARK   17  A    between atoms: C_50  and  C_52 
REMARK   18  A    between atoms: C_52  and  N_53 
REMARK   19  A    between atoms: C_52  and  C_72 
REMARK       I    between atoms: N_53  and  C_55 
REMARK   20  A    between atoms: C_55  and  C_57 
REMARK   21  A    between atoms: C_57  and  N_58 
REMARK       I    between atoms: N_58  and  C_60 
REMARK   22  A    between atoms: C_60  and  C_62 
REMARK   23  A    between atoms: C_62  and  N_63 
REMARK   24  A    between atoms: C_62  and  C_67 
REMARK   25  A    between atoms: C_67  and  C_68 
REMARK   26  A    between atoms: C_68  and  C_69 
REMARK   27  A    between atoms: C_72  and  C_73 
REMARK   28  A    between atoms: C_42  and  C_43 
REMARK       I    between atoms: C_43  and  N_44 
ROOT
HETATM    1  C           0      -0.360 -15.230   9.081  0.00  0.00     0.241 C 
HETATM    2  O           0      -0.257 -14.858   7.906  0.00  0.00    -0.271 OA
HETATM    3  N           0      -0.069 -16.498   9.455  0.00  0.00    -0.346 N 
HETATM    4  H           0      -0.200 -16.773  10.421  0.00  0.00     0.163 HD
ENDROOT
BRANCH   3   5
HETATM    5  C           0       0.562 -17.418   8.512  0.00  0.00     0.176 C 
BRANCH   5   6
HETATM    6  C           0       2.062 -17.591   8.804  0.00  0.00     0.036 C 
BRANCH   6   7
HETATM    7  C           0       2.849 -17.834   7.511  0.00  0.00     0.023 C 
BRANCH   7   8
HETATM    8  C           0       4.347 -17.555   7.628  0.00  0.00     0.138 C 
BRANCH   8   9
HETATM    9  N           0       4.874 -17.422   6.272  0.00  0.00    -0.227 N 
HETATM   10  C           0       5.103 -18.404   5.406  0.00  0.00     0.665 C 
HETATM   11  N           0       4.915 -19.690   5.733  0.00  0.00    -0.235 N 
HETATM   12  N           0       5.523 -18.064   4.173  0.00  0.00    -0.235 N 
HETATM   13  H           0       4.954 -20.411   5.027  0.00  0.00     0.174 HD
HETATM   14  H           0       4.526 -19.944   6.627  0.00  0.00     0.174 HD
HETATM   15  H           0       5.938 -18.756   3.569  0.00  0.00     0.174 HD
HETATM   16  H           0       5.769 -17.080   4.045  0.00  0.00     0.174 HD
HETATM   17  H           0       5.129 -16.484   5.918  0.00  0.00     0.177 HD
ENDBRANCH   8   9
ENDBRANCH   7   8
ENDBRANCH   6   7
ENDBRANCH   5   6
BRANCH   5  18
HETATM   18  C           0      -0.173 -18.761   8.306  0.00  0.00     0.243 C 
HETATM   19  N           0      -1.343 -18.808   7.612  0.00  0.00    -0.337 N 
HETATM   20  C           0      -1.958 -20.115   7.324  0.00  0.00     0.179 C 
HETATM   21  C           0      -2.339 -17.726   7.468  0.00  0.00     0.127 C 
HETATM   22  C           0      -3.482 -19.826   7.235  0.00  0.00     0.037 C 
HETATM   23  C           0      -3.645 -18.429   7.854  0.00  0.00     0.022 C 
HETATM   24  O           0       0.379 -19.780   8.733  0.00  0.00    -0.271 OA
BRANCH  20  25
HETATM   25  C           0      -1.463 -20.795   6.036  0.00  0.00     0.241 C 
HETATM   26  N           0      -0.383 -21.613   6.124  0.00  0.00    -0.344 N 
HETATM   27  H           0       0.063 -21.765   7.025  0.00  0.00     0.163 HD
HETATM   28  O           0      -2.051 -20.562   4.977  0.00  0.00    -0.271 OA
BRANCH  26  29
HETATM   29  C           0       0.271 -22.152   4.940  0.00  0.00     0.200 C 
BRANCH  29  30
HETATM   30  C           0      -0.358 -23.428   4.349  0.00  0.00     0.242 C 
HETATM   31  N           0       0.320 -24.079   3.393  0.00  0.00    -0.354 N 
HETATM   32  H           0       1.246 -23.796   3.081  0.00  0.00     0.162 HD
HETATM   33  O           0      -1.463 -23.799   4.774  0.00  0.00    -0.271 OA
BRANCH  31  34
HETATM   34  C           0      -0.137 -25.317   2.789  0.00  0.00     0.203 C 
BRANCH  34  35
HETATM   35  C           0      -0.657 -25.058   1.347  0.00  0.00     0.307 C 
HETATM   36  O           0      -0.413 -23.920   0.862  0.00  0.00    -0.186 OA
HETATM   37  O           0      -1.265 -26.019   0.818  0.00  0.00    -0.186 OA
ENDBRANCH  34  35
ENDBRANCH  31  34
ENDBRANCH  29  30
BRANCH  29  38
HETATM   38  C           0       1.773 -22.393   5.199  0.00  0.00     0.199 C 
BRANCH  38  39
HETATM   39  O           0       2.590 -21.971   4.122  0.00  0.00    -0.398 OA
HETATM   40  H           0       2.034 -21.733   3.360  0.00  0.00     0.209 HD
ENDBRANCH  38  39
ENDBRANCH  29  38
ENDBRANCH  26  29
ENDBRANCH  20  25
ENDBRANCH   5  18
ENDBRANCH   3   5
BRANCH   1  41
HETATM   41  C           0      -0.782 -14.249  10.195  0.00  0.00     0.185 C 
BRANCH  41  42
HETATM   42  C           0      -0.621 -14.852  11.604  0.00  0.00     0.137 C 
BRANCH  42  43
HETATM   43  C           0      -1.894 -15.461  12.191  0.00  0.00     0.217 C 
HETATM   44  N           0      -2.233 -14.970  13.402  0.00  0.00    -0.370 N 
HETATM   45  H           0      -3.005 -15.411  13.882  0.00  0.00     0.159 HD
HETATM   46  H           0      -1.646 -14.299  13.913  0.00  0.00     0.159 HD
HETATM   47  O           0      -2.521 -16.350  11.609  0.00  0.00    -0.274 OA
ENDBRANCH  42  43
ENDBRANCH  41  42
BRANCH  41  48
HETATM   48  N           0      -2.172 -13.829  10.060  0.00  0.00    -0.346 N 
HETATM   49  H           0      -2.886 -14.544  10.013  0.00  0.00     0.163 HD
HETATM   50  C           0      -2.554 -12.545   9.900  0.00  0.00     0.241 C 
HETATM   51  O           0      -1.755 -11.604   9.827  0.00  0.00    -0.271 OA
BRANCH  50  52
HETATM   52  C           0      -4.070 -12.281   9.837  0.00  0.00     0.177 C 
BRANCH  52  53
HETATM   53  N           0      -4.536 -12.033   8.477  0.00  0.00    -0.346 N 
HETATM   54  H           0      -4.819 -12.820   7.906  0.00  0.00     0.163 HD
HETATM   55  C           0      -4.721 -10.773   7.999  0.00  0.00     0.236 C 
HETATM   56  O           0      -4.513  -9.765   8.669  0.00  0.00    -0.272 OA
BRANCH  55  57
HETATM   57  C           0      -5.239 -10.655   6.559  0.00  0.00     0.225 C 
BRANCH  57  58
HETATM   58  N           0      -5.849 -11.877   6.038  0.00  0.00    -0.351 N 
HETATM   59  H           0      -5.506 -12.755   6.402  0.00  0.00     0.163 HD
HETATM   60  C           0      -7.006 -11.798   5.340  0.00  0.00     0.248 C 
HETATM   61  O           0      -7.514 -10.709   5.054  0.00  0.00    -0.271 OA
BRANCH  60  62
HETATM   62  C           0      -7.710 -13.070   4.853  0.00  0.00     0.275 C 
BRANCH  62  63
HETATM   63  N           0      -6.828 -13.937   3.969  0.00  0.00    -0.066 N 
HETATM   64  H           0      -7.247 -14.853   3.774  0.00  0.00     0.275 HD
HETATM   65  H           0      -6.584 -13.502   3.074  0.00  0.00     0.275 HD
HETATM   66  H           0      -5.939 -14.118   4.447  0.00  0.00     0.275 HD
ENDBRANCH  62  63
BRANCH  62  67
HETATM   67  C           0      -8.309 -13.943   5.968  0.00  0.00     0.053 C 
BRANCH  67  68
HETATM   68  C           0      -7.736 -15.364   6.037  0.00  0.00     0.115 C 
BRANCH  68  69
HETATM   69  C           0      -8.495 -16.457   5.259  0.00  0.00     0.172 C 
HETATM   70  O           0      -9.140 -16.133   4.228  0.00  0.00    -0.648 OA
HETATM   71  O           0      -8.427 -17.633   5.744  0.00  0.00    -0.648 OA
ENDBRANCH  68  69
ENDBRANCH  67  68
ENDBRANCH  62  67
ENDBRANCH  60  62
ENDBRANCH  57  58
ENDBRANCH  55  57
ENDBRANCH  52  53
BRANCH  52  72
HETATM   72  C           0      -4.879 -13.452  10.442  0.00  0.00     0.038 C 
BRANCH  72  73
HETATM   73  C           0      -5.858 -14.183   9.503  0.00  0.00    -0.020 C 
HETATM   74  C           0      -5.693 -15.708   9.551  0.00  0.00     0.009 C 
HETATM   75  C           0      -7.297 -13.776   9.859  0.00  0.00     0.009 C 
ENDBRANCH  72  73
ENDBRANCH  52  72
ENDBRANCH  50  52
ENDBRANCH  41  48
ENDBRANCH   1  41
TORSDOF 28
ENDMDL
MODEL 3
REMARK VINA RESULT:      -5.9      3.431      9.576
REMARK  28 active torsions:
REMARK  status: ('A' for Active; 'I' for Inactive)
REMARK       I    between atoms: C_1  and  N_3 
REMARK    1  A    between atoms: C_1  and  C_41 
REMARK    2  A    between atoms: N_3  and  C_5 
REMARK    3  A    between atoms: C_5  and  C_6 
REMARK    4  A    between atoms: C_5  and  C_18 
REMARK       I    between atoms: C_18  and  N_19 
REMARK    5  A    between atoms: C_20  and  C_25 
REMARK       I    between atoms: C_25  and  N_26 
REMARK    6  A    between atoms: N_26  and  C_29 
REMARK    7  A    between atoms: C_29  and  C_30 
REMARK    8  A    between atoms: C_29  and  C_38 
REMARK       I    between atoms: C_30  and  N_31 
REMARK    9  A    between atoms: N_31  and  C_34 
REMARK   10  A    between atoms: C_34  and  C_35 
REMARK   11  A    between atoms: C_38  and  O_39 
REMARK   12  A    between atoms: C_6  and  C_7 
REMARK   13  A    between atoms: C_7  and  C_8 
REMARK   14  A    between atoms: C_8  and  N_9 
REMARK       I    between atoms: N_9  and  C_10 
REMARK       I    between atoms: C_10  and  N_12 
REMARK   15  A    between atoms: C_41  and  C_42 
REMARK   16  A    between atoms: C_41  and  N_48 
REMARK       I    between atoms: N_48  and  C_50 
REMARK   17  A    between atoms: C_50  and  C_52 
REMARK   18  A    between atoms: C_52  and  N_53 
REMARK   19  A    between atoms: C_52  and  C_72 
REMARK       I    between atoms: N_53  and  C_55 
REMARK   20  A    between atoms: C_55  and  C_57 
REMARK   21  A    between atoms: C_57  and  N_58 
REMARK       I    between atoms: N_58  and  C_60 
REMARK   22  A    between atoms: C_60  and  C_62 
REMARK   23  A    between atoms: C_62  and  N_63 
REMARK   24  A    between atoms: C_62  and  C_67 
REMARK   25  A    between atoms: C_67  and  C_68 
REMARK   26  A    between atoms: C_68  and  C_69 
REMARK   27  A    between atoms: C_72  and  C_73 
REMARK   28  A    between atoms: C_42  and  C_43 
REMARK       I    between atoms: C_43  and  N_44 
ROOT
HETATM    1  C           0      -1.703 -20.014   7.977  0.00  0.00     0.241 C 
HETATM    2  O           0      -1.073 -19.908   9.035  0.00  0.00    -0.271 OA
HETATM    3  N           0      -2.296 -18.947   7.390  0.00  0.00    -0.346 N 
HETATM    4  H           0      -2.833 -19.081   6.542  0.00  0.00     0.163 HD
ENDROOT
BRANCH   3   5
HETATM    5  C           0      -2.046 -17.597   7.893  0.00  0.00     0.176 C 
BRANCH   5   6
HETATM    6  C           0      -1.180 -16.780   6.920  0.00  0.00     0.036 C 
BRANCH   6   7
HETATM    7  C           0       0.131 -16.345   7.584  0.00  0.00     0.023 C 
BRANCH   7   8
HETATM    8  C           0       0.128 -16.458   9.109  0.00  0.00     0.138 C 
BRANCH   8   9
HETATM    9  N           0       0.082 -15.102   9.648  0.00  0.00    -0.227 N 
HETATM   10  C           0      -0.424 -14.727  10.819  0.00  0.00     0.665 C 
HETATM   11  N           0      -1.026 -15.599  11.639  0.00  0.00    -0.235 N 
HETATM   12  N           0      -0.301 -13.432  11.166  0.00  0.00    -0.235 N 
HETATM   13  H           0      -1.275 -15.333  12.580  0.00  0.00     0.174 HD
HETATM   14  H           0      -1.050 -16.582  11.419  0.00  0.00     0.174 HD
HETATM   15  H           0      -0.866 -13.049  11.908  0.00  0.00     0.174 HD
HETATM   16  H           0       0.048 -12.808  10.435  0.00  0.00     0.174 HD
HETATM   17  H           0       0.452 -14.319   9.082  0.00  0.00     0.177 HD
ENDBRANCH   8   9
ENDBRANCH   7   8
ENDBRANCH   6   7
ENDBRANCH   5   6
BRANCH   5  18
HETATM   18  C           0      -3.296 -16.831   8.380  0.00  0.00     0.243 C 
HETATM   19  N           0      -3.648 -16.850   9.694  0.00  0.00    -0.337 N 
HETATM   20  C           0      -4.770 -16.011  10.152  0.00  0.00     0.179 C 
HETATM   21  C           0      -3.363 -17.914  10.680  0.00  0.00     0.127 C 
HETATM   22  C           0      -5.355 -16.766  11.378  0.00  0.00     0.037 C 
HETATM   23  C           0      -4.745 -18.174  11.290  0.00  0.00     0.022 C 
HETATM   24  O           0      -3.907 -16.157   7.546  0.00  0.00    -0.271 OA
BRANCH  20  25
HETATM   25  C           0      -4.388 -14.572  10.538  0.00  0.00     0.241 C 
HETATM   26  N           0      -4.474 -13.614   9.581  0.00  0.00    -0.344 N 
HETATM   27  H           0      -4.793 -13.860   8.647  0.00  0.00     0.163 HD
HETATM   28  O           0      -4.007 -14.346  11.689  0.00  0.00    -0.271 OA
BRANCH  26  29
HETATM   29  C           0      -3.961 -12.268   9.793  0.00  0.00     0.200 C 
BRANCH  29  30
HETATM   30  C           0      -4.887 -11.119   9.346  0.00  0.00     0.242 C 
HETATM   31  N           0      -4.339  -9.914   9.139  0.00  0.00    -0.354 N 
HETATM   32  H           0      -3.340  -9.740   9.213  0.00  0.00     0.162 HD
HETATM   33  O           0      -6.097 -11.352   9.202  0.00  0.00    -0.271 OA
BRANCH  31  34
HETATM   34  C           0      -5.090  -8.764   8.670  0.00  0.00     0.203 C 
BRANCH  34  35
HETATM   35  C           0      -5.061  -8.693   7.117  0.00  0.00     0.307 C 
HETATM   36  O           0      -3.934  -8.841   6.573  0.00  0.00    -0.186 OA
HETATM   37  O           0      -6.174  -8.497   6.571  0.00  0.00    -0.186 OA
ENDBRANCH  34  35
ENDBRANCH  31  34
ENDBRANCH  29  30
BRANCH  29  38
HETATM   38  C           0      -2.575 -12.093   9.137  0.00  0.00     0.199 C 
BRANCH  38  39
HETATM   39  O           0      -2.155 -13.243   8.427  0.00  0.00    -0.398 OA
HETATM   40  H           0      -2.871 -13.900   8.411  0.00  0.00     0.209 HD
ENDBRANCH  38  39
ENDBRANCH  29  38
ENDBRANCH  26  29
ENDBRANCH  20  25
ENDBRANCH   5  18
ENDBRANCH   3   5
BRANCH   1  41
HETATM   41  C           0      -1.807 -21.366   7.240  0.00  0.00     0.185 C 
BRANCH  41  42
HETATM   42  C           0      -0.464 -21.809   6.629  0.00  0.00     0.137 C 
BRANCH  42  43
HETATM   43  C           0       0.046 -20.926   5.490  0.00  0.00     0.217 C 
HETATM   44  N           0       1.271 -21.266   5.035  0.00  0.00    -0.370 N 
HETATM   45  H           0       1.699 -20.653   4.356  0.00  0.00     0.159 HD
HETATM   46  H           0       1.838 -22.007   5.466  0.00  0.00     0.159 HD
HETATM   47  O           0      -0.605 -19.969   5.064  0.00  0.00    -0.274 OA
ENDBRANCH  42  43
ENDBRANCH  41  42
BRANCH  41  48
HETATM   48  N           0      -2.784 -21.329   6.158  0.00  0.00    -0.346 N 
HETATM   49  H           0      -2.580 -20.757   5.349  0.00  0.00     0.163 HD
HETATM   50  C           0      -3.986 -21.937   6.214  0.00  0.00     0.241 C 
HETATM   51  O           0      -4.384 -22.565   7.203  0.00  0.00    -0.271 OA
BRANCH  50  52
HETATM   52  C           0      -4.864 -21.844   4.951  0.00  0.00     0.177 C 
BRANCH  52  53
HETATM   53  N           0      -5.998 -20.942   5.127  0.00  0.00    -0.346 N 
HETATM   54  H           0      -6.922 -21.263   4.864  0.00  0.00     0.163 HD
HETATM   55  C           0      -5.871 -19.739   5.749  0.00  0.00     0.236 C 
HETATM   56  O           0      -4.805 -19.329   6.201  0.00  0.00    -0.272 OA
BRANCH  55  57
HETATM   57  C           0      -7.149 -18.901   5.889  0.00  0.00     0.225 C 
BRANCH  57  58
HETATM   58  N           0      -6.995 -17.501   5.497  0.00  0.00    -0.351 N 
HETATM   59  H           0      -6.529 -17.316   4.621  0.00  0.00     0.163 HD
HETATM   60  C           0      -7.711 -16.548   6.139  0.00  0.00     0.248 C 
HETATM   61  O           0      -8.425 -16.822   7.110  0.00  0.00    -0.271 OA
BRANCH  60  62
HETATM   62  C           0      -7.631 -15.083   5.695  0.00  0.00     0.275 C 
BRANCH  62  63
HETATM   63  N           0      -6.397 -14.368   6.221  0.00  0.00    -0.066 N 
HETATM   64  H           0      -6.606 -13.760   7.021  0.00  0.00     0.275 HD
HETATM   65  H           0      -5.637 -14.999   6.491  0.00  0.00     0.275 HD
HETATM   66  H           0      -6.015 -13.763   5.486  0.00  0.00     0.275 HD
ENDBRANCH  62  63
BRANCH  62  67
HETATM   67  C           0      -7.724 -14.864   4.176  0.00  0.00     0.053 C 
BRANCH  67  68
HETATM   68  C           0      -9.132 -14.529   3.670  0.00  0.00     0.115 C 
BRANCH  68  69
HETATM   69  C           0     -10.019 -15.718   3.249  0.00  0.00     0.172 C 
HETATM   70  O           0      -9.782 -16.297   2.157  0.00  0.00    -0.648 OA
HETATM   71  O           0     -10.963 -16.018   4.050  0.00  0.00    -0.648 OA
ENDBRANCH  68  69
ENDBRANCH  67  68
ENDBRANCH  62  67
ENDBRANCH  60  62
ENDBRANCH  57  58
ENDBRANCH  55  57
ENDBRANCH  52  53
BRANCH  52  72
HETATM   72  C           0      -4.047 -21.391   3.719  0.00  0.00     0.038 C 
BRANCH  72  73
HETATM   73  C           0      -3.896 -22.405   2.570  0.00  0.00    -0.020 C 
HETATM   74  C           0      -3.645 -23.834   3.074  0.00  0.00     0.009 C 
HETATM   75  C           0      -5.149 -22.350   1.681  0.00  0.00     0.009 C 
ENDBRANCH  72  73
ENDBRANCH  52  72
ENDBRANCH  50  52
ENDBRANCH  41  48
ENDBRANCH   1  41
TORSDOF 28
ENDMDL
MODEL 4
REMARK VINA RESULT:      -5.9      4.910      8.591
REMARK  28 active torsions:
REMARK  status: ('A' for Active; 'I' for Inactive)
REMARK       I    between atoms: C_1  and  N_3 
REMARK    1  A    between atoms: C_1  and  C_41 
REMARK    2  A    between atoms: N_3  and  C_5 
REMARK    3  A    between atoms: C_5  and  C_6 
REMARK    4  A    between atoms: C_5  and  C_18 
REMARK       I    between atoms: C_18  and  N_19 
REMARK    5  A    between atoms: C_20  and  C_25 
REMARK       I    between atoms: C_25  and  N_26 
REMARK    6  A    between atoms: N_26  and  C_29 
REMARK    7  A    between atoms: C_29  and  C_30 
REMARK    8  A    between atoms: C_29  and  C_38 
REMARK       I    between atoms: C_30  and  N_31 
REMARK    9  A    between atoms: N_31  and  C_34 
REMARK   10  A    between atoms: C_34  and  C_35 
REMARK   11  A    between atoms: C_38  and  O_39 
REMARK   12  A    between atoms: C_6  and  C_7 
REMARK   13  A    between atoms: C_7  and  C_8 
REMARK   14  A    between atoms: C_8  and  N_9 
REMARK       I    between atoms: N_9  and  C_10 
REMARK       I    between atoms: C_10  and  N_12 
REMARK   15  A    between atoms: C_41  and  C_42 
REMARK   16  A    between atoms: C_41  and  N_48 
REMARK       I    between atoms: N_48  and  C_50 
REMARK   17  A    between atoms: C_50  and  C_52 
REMARK   18  A    between atoms: C_52  and  N_53 
REMARK   19  A    between atoms: C_52  and  C_72 
REMARK       I    between atoms: N_53  and  C_55 
REMARK   20  A    between atoms: C_55  and  C_57 
REMARK   21  A    between atoms: C_57  and  N_58 
REMARK       I    between atoms: N_58  and  C_60 
REMARK   22  A    between atoms: C_60  and  C_62 
REMARK   23  A    between atoms: C_62  and  N_63 
REMARK   24  A    between atoms: C_62  and  C_67 
REMARK   25  A    between atoms: C_67  and  C_68 
REMARK   26  A    between atoms: C_68  and  C_69 
REMARK   27  A    between atoms: C_72  and  C_73 
REMARK   28  A    between atoms: C_42  and  C_43 
REMARK       I    between atoms: C_43  and  N_44 
ROOT
HETATM    1  C           0      -3.855 -12.510   7.912  0.00  0.00     0.241 C 
HETATM    2  O           0      -3.159 -13.307   7.273  0.00  0.00    -0.271 OA
HETATM    3  N           0      -3.893 -12.524   9.266  0.00  0.00    -0.346 N 
HETATM    4  H           0      -4.503 -11.878   9.753  0.00  0.00     0.163 HD
ENDROOT
BRANCH   3   5
HETATM    5  C           0      -2.962 -13.361  10.021  0.00  0.00     0.176 C 
BRANCH   5   6
HETATM    6  C           0      -1.849 -12.524  10.673  0.00  0.00     0.036 C 
BRANCH   6   7
HETATM    7  C           0      -0.524 -12.689   9.920  0.00  0.00     0.023 C 
BRANCH   7   8
HETATM    8  C           0      -0.068 -14.140   9.766  0.00  0.00     0.138 C 
BRANCH   8   9
HETATM    9  N           0      -0.416 -14.567   8.413  0.00  0.00    -0.227 N 
HETATM   10  C           0      -1.029 -15.694   8.065  0.00  0.00     0.665 C 
HETATM   11  N           0      -1.354 -16.628   8.970  0.00  0.00    -0.235 N 
HETATM   12  N           0      -1.327 -15.867   6.764  0.00  0.00    -0.235 N 
HETATM   13  H           0      -1.942 -17.407   8.716  0.00  0.00     0.174 HD
HETATM   14  H           0      -1.203 -16.468   9.954  0.00  0.00     0.174 HD
HETATM   15  H           0      -1.562 -16.783   6.415  0.00  0.00     0.174 HD
HETATM   16  H           0      -0.930 -15.177   6.123  0.00  0.00     0.174 HD
HETATM   17  H           0      -0.156 -13.967   7.611  0.00  0.00     0.177 HD
ENDBRANCH   8   9
ENDBRANCH   7   8
ENDBRANCH   6   7
ENDBRANCH   5   6
BRANCH   5  18
HETATM   18  C           0      -3.615 -14.365  10.996  0.00  0.00     0.243 C 
HETATM   19  N           0      -4.790 -14.063  11.612  0.00  0.00    -0.337 N 
HETATM   20  C           0      -5.454 -15.085  12.439  0.00  0.00     0.179 C 
HETATM   21  C           0      -5.305 -12.717  11.944  0.00  0.00     0.127 C 
HETATM   22  C           0      -6.246 -14.280  13.506  0.00  0.00     0.037 C 
HETATM   23  C           0      -5.664 -12.860  13.426  0.00  0.00     0.022 C 
HETATM   24  O           0      -3.065 -15.461  11.132  0.00  0.00    -0.271 OA
BRANCH  20  25
HETATM   25  C           0      -6.394 -16.030  11.671  0.00  0.00     0.241 C 
HETATM   26  N           0      -6.542 -15.832  10.336  0.00  0.00    -0.344 N 
HETATM   27  H           0      -6.029 -15.083   9.877  0.00  0.00     0.163 HD
HETATM   28  O           0      -6.986 -16.916  12.293  0.00  0.00    -0.271 OA
BRANCH  26  29
HETATM   29  C           0      -7.543 -16.547   9.559  0.00  0.00     0.200 C 
BRANCH  29  30
HETATM   30  C           0      -7.065 -17.848   8.884  0.00  0.00     0.242 C 
HETATM   31  N           0      -6.417 -17.749   7.716  0.00  0.00    -0.354 N 
HETATM   32  H           0      -6.185 -16.857   7.285  0.00  0.00     0.162 HD
HETATM   33  O           0      -7.302 -18.930   9.443  0.00  0.00    -0.271 OA
BRANCH  31  34
HETATM   34  C           0      -5.874 -18.890   7.003  0.00  0.00     0.203 C 
BRANCH  34  35
HETATM   35  C           0      -4.319 -18.876   7.062  0.00  0.00     0.307 C 
HETATM   36  O           0      -3.784 -17.792   7.420  0.00  0.00    -0.186 OA
HETATM   37  O           0      -3.764 -19.956   6.746  0.00  0.00    -0.186 OA
ENDBRANCH  34  35
ENDBRANCH  31  34
ENDBRANCH  29  30
BRANCH  29  38
HETATM   38  C           0      -8.185 -15.626   8.499  0.00  0.00     0.199 C 
BRANCH  38  39
HETATM   39  O           0      -7.291 -14.640   8.017  0.00  0.00    -0.398 OA
HETATM   40  H           0      -7.791 -13.926   7.586  0.00  0.00     0.209 HD
ENDBRANCH  38  39
ENDBRANCH  29  38
ENDBRANCH  26  29
ENDBRANCH  20  25
ENDBRANCH   5  18
ENDBRANCH   3   5
BRANCH   1  41
HETATM   41  C           0      -4.683 -11.421   7.199  0.00  0.00     0.185 C 
BRANCH  41  42
HETATM   42  C           0      -4.895 -10.172   8.076  0.00  0.00     0.137 C 
BRANCH  42  43
HETATM   43  C           0      -4.325  -8.877   7.497  0.00  0.00     0.217 C 
HETATM   44  N           0      -4.469  -8.760   6.159  0.00  0.00    -0.370 N 
HETATM   45  H           0      -4.019  -7.974   5.712  0.00  0.00     0.159 HD
HETATM   46  H           0      -4.863  -9.509   5.576  0.00  0.00     0.159 HD
HETATM   47  O           0      -3.753  -8.042   8.203  0.00  0.00    -0.274 OA
ENDBRANCH  42  43
ENDBRANCH  41  42
BRANCH  41  48
HETATM   48  N           0      -6.002 -11.902   6.806  0.00  0.00    -0.346 N 
HETATM   49  H           0      -6.504 -12.501   7.449  0.00  0.00     0.163 HD
HETATM   50  C           0      -6.553 -11.674   5.596  0.00  0.00     0.241 C 
HETATM   51  O           0      -5.976 -11.053   4.695  0.00  0.00    -0.271 OA
BRANCH  50  52
HETATM   52  C           0      -7.982 -12.206   5.379  0.00  0.00     0.177 C 
BRANCH  52  53
HETATM   53  N           0      -8.917 -11.151   5.000  0.00  0.00    -0.346 N 
HETATM   54  H           0      -8.703 -10.575   4.195  0.00  0.00     0.163 HD
HETATM   55  C           0     -10.120 -11.002   5.616  0.00  0.00     0.236 C 
HETATM   56  O           0     -10.504 -11.735   6.523  0.00  0.00    -0.272 OA
BRANCH  55  57
HETATM   57  C           0     -11.017  -9.867   5.102  0.00  0.00     0.225 C 
BRANCH  57  58
HETATM   58  N           0     -10.288  -8.749   4.506  0.00  0.00    -0.351 N 
HETATM   59  H           0      -9.341  -8.594   4.822  0.00  0.00     0.163 HD
HETATM   60  C           0     -10.770  -8.163   3.385  0.00  0.00     0.248 C 
HETATM   61  O           0     -11.859  -8.491   2.902  0.00  0.00    -0.271 OA
BRANCH  60  62
HETATM   62  C           0      -9.985  -7.043   2.692  0.00  0.00     0.275 C 
BRANCH  62  63
HETATM   63  N           0     -10.743  -6.409   1.538  0.00  0.00    -0.066 N 
HETATM   64  H           0     -11.759  -6.524   1.625  0.00  0.00     0.275 HD
HETATM   65  H           0     -10.546  -5.411   1.412  0.00  0.00     0.275 HD
HETATM   66  H           0     -10.471  -6.864   0.661  0.00  0.00     0.275 HD
ENDBRANCH  62  63
BRANCH  62  67
HETATM   67  C           0      -9.485  -5.932   3.630  0.00  0.00     0.053 C 
BRANCH  67  68
HETATM   68  C           0      -7.960  -5.786   3.683  0.00  0.00     0.115 C 
BRANCH  68  69
HETATM   69  C           0      -7.133  -7.078   3.533  0.00  0.00     0.172 C 
HETATM   70  O           0      -6.475  -7.259   2.475  0.00  0.00    -0.648 OA
HETATM   71  O           0      -7.195  -7.895   4.508  0.00  0.00    -0.648 OA
ENDBRANCH  68  69
ENDBRANCH  67  68
ENDBRANCH  62  67
ENDBRANCH  60  62
ENDBRANCH  57  58
ENDBRANCH  55  57
ENDBRANCH  52  53
BRANCH  52  72
HETATM   72  C           0      -8.020 -13.322   4.309  0.00  0.00     0.038 C 
BRANCH  72  73
HETATM   73  C           0      -9.261 -14.234   4.295  0.00  0.00    -0.020 C 
HETATM   74  C           0      -9.829 -14.435   2.882  0.00  0.00     0.009 C 
HETATM   75  C           0      -8.903 -15.583   4.938  0.00  0.00     0.009 C 
ENDBRANCH  72  73
ENDBRANCH  52  72
ENDBRANCH  50  52
ENDBRANCH  41  48
ENDBRANCH   1  41
TORSDOF 28
ENDMDL
MODEL 5
REMARK VINA RESULT:      -5.8      2.734      5.049
REMARK  28 active torsions:
REMARK  status: ('A' for Active; 'I' for Inactive)
REMARK       I    between atoms: C_1  and  N_3 
REMARK    1  A    between atoms: C_1  and  C_41 
REMARK    2  A    between atoms: N_3  and  C_5 
REMARK    3  A    between atoms: C_5  and  C_6 
REMARK    4  A    between atoms: C_5  and  C_18 
REMARK       I    between atoms: C_18  and  N_19 
REMARK    5  A    between atoms: C_20  and  C_25 
REMARK       I    between atoms: C_25  and  N_26 
REMARK    6  A    between atoms: N_26  and  C_29 
REMARK    7  A    between atoms: C_29  and  C_30 
REMARK    8  A    between atoms: C_29  and  C_38 
REMARK       I    between atoms: C_30  and  N_31 
REMARK    9  A    between atoms: N_31  and  C_34 
REMARK   10  A    between atoms: C_34  and  C_35 
REMARK   11  A    between atoms: C_38  and  O_39 
REMARK   12  A    between atoms: C_6  and  C_7 
REMARK   13  A    between atoms: C_7  and  C_8 
REMARK   14  A    between atoms: C_8  and  N_9 
REMARK       I    between atoms: N_9  and  C_10 
REMARK       I    between atoms: C_10  and  N_12 
REMARK   15  A    between atoms: C_41  and  C_42 
REMARK   16  A    between atoms: C_41  and  N_48 
REMARK       I    between atoms: N_48  and  C_50 
REMARK   17  A    between atoms: C_50  and  C_52 
REMARK   18  A    between atoms: C_52  and  N_53 
REMARK   19  A    between atoms: C_52  and  C_72 
REMARK       I    between atoms: N_53  and  C_55 
REMARK   20  A    between atoms: C_55  and  C_57 
REMARK   21  A    between atoms: C_57  and  N_58 
REMARK       I    between atoms: N_58  and  C_60 
REMARK   22  A    between atoms: C_60  and  C_62 
REMARK   23  A    between atoms: C_62  and  N_63 
REMARK   24  A    between atoms: C_62  and  C_67 
REMARK   25  A    between atoms: C_67  and  C_68 
REMARK   26  A    between atoms: C_68  and  C_69 
REMARK   27  A    between atoms: C_72  and  C_73 
REMARK   28  A    between atoms: C_42  and  C_43 
REMARK       I    between atoms: C_43  and  N_44 
ROOT
HETATM    1  C           0      -3.609 -18.090   7.630  0.00  0.00     0.241 C 
HETATM    2  O           0      -3.593 -19.058   6.861  0.00  0.00    -0.271 OA
HETATM    3  N           0      -2.468 -17.484   8.036  0.00  0.00    -0.346 N 
HETATM    4  H           0      -2.521 -16.717   8.695  0.00  0.00     0.163 HD
ENDROOT
BRANCH   3   5
HETATM    5  C           0      -1.188 -17.838   7.426  0.00  0.00     0.176 C 
BRANCH   5   6
HETATM    6  C           0      -0.165 -16.697   7.552  0.00  0.00     0.036 C 
BRANCH   6   7
HETATM    7  C           0      -0.755 -15.514   8.329  0.00  0.00     0.023 C 
BRANCH   7   8
HETATM    8  C           0      -0.143 -15.307   9.714  0.00  0.00     0.138 C 
BRANCH   8   9
HETATM    9  N           0       0.046 -13.870   9.899  0.00  0.00    -0.227 N 
HETATM   10  C           0      -0.465 -13.118  10.869  0.00  0.00     0.665 C 
HETATM   11  N           0      -1.297 -13.623  11.790  0.00  0.00    -0.235 N 
HETATM   12  N           0      -0.108 -11.820  10.905  0.00  0.00    -0.235 N 
HETATM   13  H           0      -1.562 -13.079  12.597  0.00  0.00     0.174 HD
HETATM   14  H           0      -1.504 -14.609  11.812  0.00  0.00     0.174 HD
HETATM   15  H           0      -0.641 -11.162  11.453  0.00  0.00     0.174 HD
HETATM   16  H           0       0.419 -11.483  10.097  0.00  0.00     0.174 HD
HETATM   17  H           0       0.613 -13.342   9.214  0.00  0.00     0.177 HD
ENDBRANCH   8   9
ENDBRANCH   7   8
ENDBRANCH   6   7
ENDBRANCH   5   6
BRANCH   5  18
HETATM   18  C           0      -0.616 -19.212   7.836  0.00  0.00     0.243 C 
HETATM   19  N           0       0.011 -20.000   6.921  0.00  0.00    -0.337 N 
HETATM   20  C           0       0.656 -21.247   7.365  0.00  0.00     0.179 C 
HETATM   21  C           0      -0.219 -20.029   5.461  0.00  0.00     0.127 C 
HETATM   22  C           0       0.592 -22.189   6.130  0.00  0.00     0.037 C 
HETATM   23  C           0      -0.427 -21.523   5.192  0.00  0.00     0.022 C 
HETATM   24  O           0      -0.692 -19.524   9.028  0.00  0.00    -0.271 OA
BRANCH  20  25
HETATM   25  C           0       2.109 -21.091   7.847  0.00  0.00     0.241 C 
HETATM   26  N           0       3.102 -21.297   6.945  0.00  0.00    -0.344 N 
HETATM   27  H           0       2.871 -21.537   5.984  0.00  0.00     0.163 HD
HETATM   28  O           0       2.317 -20.800   9.027  0.00  0.00    -0.271 OA
BRANCH  26  29
HETATM   29  C           0       4.501 -21.356   7.343  0.00  0.00     0.200 C 
BRANCH  29  30
HETATM   30  C           0       5.324 -20.077   7.092  0.00  0.00     0.242 C 
HETATM   31  N           0       6.227 -20.093   6.102  0.00  0.00    -0.354 N 
HETATM   32  H           0       6.354 -20.890   5.483  0.00  0.00     0.162 HD
HETATM   33  O           0       5.124 -19.089   7.816  0.00  0.00    -0.271 OA
BRANCH  31  34
HETATM   34  C           0       7.030 -18.943   5.731  0.00  0.00     0.203 C 
BRANCH  34  35
HETATM   35  C           0       6.451 -18.265   4.457  0.00  0.00     0.307 C 
HETATM   36  O           0       5.275 -17.820   4.548  0.00  0.00    -0.186 OA
HETATM   37  O           0       7.225 -18.235   3.470  0.00  0.00    -0.186 OA
ENDBRANCH  34  35
ENDBRANCH  31  34
ENDBRANCH  29  30
BRANCH  29  38
HETATM   38  C           0       5.214 -22.559   6.690  0.00  0.00     0.199 C 
BRANCH  38  39
HETATM   39  O           0       6.520 -22.764   7.195  0.00  0.00    -0.398 OA
HETATM   40  H           0       7.084 -23.152   6.504  0.00  0.00     0.209 HD
ENDBRANCH  38  39
ENDBRANCH  29  38
ENDBRANCH  26  29
ENDBRANCH  20  25
ENDBRANCH   5  18
ENDBRANCH   3   5
BRANCH   1  41
HETATM   41  C           0      -4.939 -17.489   8.131  0.00  0.00     0.185 C 
BRANCH  41  42
HETATM   42  C           0      -6.151 -18.383   7.804  0.00  0.00     0.137 C 
BRANCH  42  43
HETATM   43  C           0      -6.891 -18.015   6.518  0.00  0.00     0.217 C 
HETATM   44  N           0      -6.563 -18.780   5.454  0.00  0.00    -0.370 N 
HETATM   45  H           0      -6.944 -18.514   4.557  0.00  0.00     0.159 HD
HETATM   46  H           0      -5.828 -19.497   5.492  0.00  0.00     0.159 HD
HETATM   47  O           0      -7.687 -17.074   6.469  0.00  0.00    -0.274 OA
ENDBRANCH  42  43
ENDBRANCH  41  42
BRANCH  41  48
HETATM   48  N           0      -5.201 -16.176   7.553  0.00  0.00    -0.346 N 
HETATM   49  H           0      -5.572 -16.132   6.613  0.00  0.00     0.163 HD
HETATM   50  C           0      -4.888 -15.014   8.163  0.00  0.00     0.241 C 
HETATM   51  O           0      -4.325 -14.955   9.263  0.00  0.00    -0.271 OA
BRANCH  50  52
HETATM   52  C           0      -5.296 -13.722   7.431  0.00  0.00     0.177 C 
BRANCH  52  53
HETATM   53  N           0      -6.335 -13.952   6.432  0.00  0.00    -0.346 N 
HETATM   54  H           0      -7.171 -14.454   6.704  0.00  0.00     0.163 HD
HETATM   55  C           0      -6.270 -13.406   5.188  0.00  0.00     0.236 C 
HETATM   56  O           0      -5.345 -12.687   4.819  0.00  0.00    -0.272 OA
BRANCH  55  57
HETATM   57  C           0      -7.442 -13.708   4.244  0.00  0.00     0.225 C 
BRANCH  57  58
HETATM   58  N           0      -8.320 -14.783   4.703  0.00  0.00    -0.351 N 
HETATM   59  H           0      -8.052 -15.270   5.547  0.00  0.00     0.163 HD
HETATM   60  C           0      -9.564 -14.895   4.181  0.00  0.00     0.248 C 
HETATM   61  O           0      -9.945 -14.165   3.260  0.00  0.00    -0.271 OA
BRANCH  60  62
HETATM   62  C           0     -10.534 -15.962   4.702  0.00  0.00     0.275 C 
BRANCH  62  63
HETATM   63  N           0      -9.997 -17.376   4.559  0.00  0.00    -0.066 N 
HETATM   64  H           0      -9.176 -17.425   3.946  0.00  0.00     0.275 HD
HETATM   65  H           0      -9.754 -17.818   5.451  0.00  0.00     0.275 HD
HETATM   66  H           0     -10.715 -17.972   4.134  0.00  0.00     0.275 HD
ENDBRANCH  62  63
BRANCH  62  67
HETATM   67  C           0     -11.006 -15.752   6.150  0.00  0.00     0.053 C 
BRANCH  67  68
HETATM   68  C           0     -11.335 -14.297   6.504  0.00  0.00     0.115 C 
BRANCH  68  69
HETATM   69  C           0     -10.397 -13.598   7.508  0.00  0.00     0.172 C 
HETATM   70  O           0      -9.171 -13.886   7.498  0.00  0.00    -0.648 OA
HETATM   71  O           0     -10.951 -12.775   8.307  0.00  0.00    -0.648 OA
ENDBRANCH  68  69
ENDBRANCH  67  68
ENDBRANCH  62  67
ENDBRANCH  60  62
ENDBRANCH  57  58
ENDBRANCH  55  57
ENDBRANCH  52  53
BRANCH  52  72
HETATM   72  C           0      -5.778 -12.634   8.418  0.00  0.00     0.038 C 
BRANCH  72  73
HETATM   73  C           0      -4.862 -11.409   8.609  0.00  0.00    -0.020 C 
HETATM   74  C           0      -3.421 -11.802   8.967  0.00  0.00     0.009 C 
HETATM   75  C           0      -4.896 -10.550   7.335  0.00  0.00     0.009 C 
ENDBRANCH  72  73
ENDBRANCH  52  72
ENDBRANCH  50  52
ENDBRANCH  41  48
ENDBRANCH   1  41
TORSDOF 28
ENDMDL
MODEL 6
REMARK VINA RESULT:      -5.8      2.923      5.458
REMARK  28 active torsions:
REMARK  status: ('A' for Active; 'I' for Inactive)
REMARK       I    between atoms: C_1  and  N_3 
REMARK    1  A    between atoms: C_1  and  C_41 
REMARK    2  A    between atoms: N_3  and  C_5 
REMARK    3  A    between atoms: C_5  and  C_6 
REMARK    4  A    between atoms: C_5  and  C_18 
REMARK       I    between atoms: C_18  and  N_19 
REMARK    5  A    between atoms: C_20  and  C_25 
REMARK       I    between atoms: C_25  and  N_26 
REMARK    6  A    between atoms: N_26  and  C_29 
REMARK    7  A    between atoms: C_29  and  C_30 
REMARK    8  A    between atoms: C_29  and  C_38 
REMARK       I    between atoms: C_30  and  N_31 
REMARK    9  A    between atoms: N_31  and  C_34 
REMARK   10  A    between atoms: C_34  and  C_35 
REMARK   11  A    between atoms: C_38  and  O_39 
REMARK   12  A    between atoms: C_6  and  C_7 
REMARK   13  A    between atoms: C_7  and  C_8 
REMARK   14  A    between atoms: C_8  and  N_9 
REMARK       I    between atoms: N_9  and  C_10 
REMARK       I    between atoms: C_10  and  N_12 
REMARK   15  A    between atoms: C_41  and  C_42 
REMARK   16  A    between atoms: C_41  and  N_48 
REMARK       I    between atoms: N_48  and  C_50 
REMARK   17  A    between atoms: C_50  and  C_52 
REMARK   18  A    between atoms: C_52  and  N_53 
REMARK   19  A    between atoms: C_52  and  C_72 
REMARK       I    between atoms: N_53  and  C_55 
REMARK   20  A    between atoms: C_55  and  C_57 
REMARK   21  A    between atoms: C_57  and  N_58 
REMARK       I    between atoms: N_58  and  C_60 
REMARK   22  A    between atoms: C_60  and  C_62 
REMARK   23  A    between atoms: C_62  and  N_63 
REMARK   24  A    between atoms: C_62  and  C_67 
REMARK   25  A    between atoms: C_67  and  C_68 
REMARK   26  A    between atoms: C_68  and  C_69 
REMARK   27  A    between atoms: C_72  and  C_73 
REMARK   28  A    between atoms: C_42  and  C_43 
REMARK       I    between atoms: C_43  and  N_44 
ROOT
HETATM    1  C           0      -1.087 -14.072  10.010  0.00  0.00     0.241 C 
HETATM    2  O           0      -0.540 -14.805  10.842  0.00  0.00    -0.271 OA
HETATM    3  N           0      -1.619 -14.565   8.866  0.00  0.00    -0.346 N 
HETATM    4  H           0      -2.027 -13.927   8.193  0.00  0.00     0.163 HD
ENDROOT
BRANCH   3   5
HETATM    5  C           0      -1.732 -16.008   8.669  0.00  0.00     0.176 C 
BRANCH   5   6
HETATM    6  C           0      -3.201 -16.460   8.614  0.00  0.00     0.036 C 
BRANCH   6   7
HETATM    7  C           0      -3.302 -17.980   8.442  0.00  0.00     0.023 C 
BRANCH   7   8
HETATM    8  C           0      -4.691 -18.551   8.726  0.00  0.00     0.138 C 
BRANCH   8   9
HETATM    9  N           0      -5.284 -18.919   7.443  0.00  0.00    -0.227 N 
HETATM   10  C           0      -6.058 -18.158   6.675  0.00  0.00     0.665 C 
HETATM   11  N           0      -6.437 -16.929   7.054  0.00  0.00    -0.235 N 
HETATM   12  N           0      -6.444 -18.659   5.487  0.00  0.00    -0.235 N 
HETATM   13  H           0      -6.901 -16.311   6.405  0.00  0.00     0.174 HD
HETATM   14  H           0      -6.085 -16.521   7.905  0.00  0.00     0.174 HD
HETATM   15  H           0      -7.211 -18.240   4.984  0.00  0.00     0.174 HD
HETATM   16  H           0      -6.227 -19.646   5.330  0.00  0.00     0.174 HD
HETATM   17  H           0      -5.127 -19.870   7.067  0.00  0.00     0.177 HD
ENDBRANCH   8   9
ENDBRANCH   7   8
ENDBRANCH   6   7
ENDBRANCH   5   6
BRANCH   5  18
HETATM   18  C           0      -0.878 -16.588   7.519  0.00  0.00     0.243 C 
HETATM   19  N           0       0.041 -17.561   7.766  0.00  0.00    -0.337 N 
HETATM   20  C           0       0.753 -18.182   6.636  0.00  0.00     0.179 C 
HETATM   21  C           0       0.768 -17.803   9.030  0.00  0.00     0.127 C 
HETATM   22  C           0       2.123 -18.623   7.224  0.00  0.00     0.037 C 
HETATM   23  C           0       2.225 -17.874   8.563  0.00  0.00     0.022 C 
HETATM   24  O           0      -1.115 -16.182   6.378  0.00  0.00    -0.271 OA
BRANCH  20  25
HETATM   25  C           0       0.032 -19.382   5.997  0.00  0.00     0.241 C 
HETATM   26  N           0       0.752 -20.512   5.778  0.00  0.00    -0.344 N 
HETATM   27  H           0       1.732 -20.546   6.046  0.00  0.00     0.163 HD
HETATM   28  O           0      -1.158 -19.269   5.695  0.00  0.00    -0.271 OA
BRANCH  26  29
HETATM   29  C           0       0.215 -21.629   5.014  0.00  0.00     0.200 C 
BRANCH  29  30
HETATM   30  C           0      -1.005 -22.340   5.632  0.00  0.00     0.242 C 
HETATM   31  N           0      -2.189 -22.204   5.021  0.00  0.00    -0.354 N 
HETATM   32  H           0      -2.306 -21.698   4.146  0.00  0.00     0.162 HD
HETATM   33  O           0      -0.845 -23.003   6.669  0.00  0.00    -0.271 OA
BRANCH  31  34
HETATM   34  C           0      -3.403 -22.860   5.471  0.00  0.00     0.203 C 
BRANCH  34  35
HETATM   35  C           0      -4.604 -21.873   5.420  0.00  0.00     0.307 C 
HETATM   36  O           0      -4.344 -20.698   5.044  0.00  0.00    -0.186 OA
HETATM   37  O           0      -5.709 -22.359   5.761  0.00  0.00    -0.186 OA
ENDBRANCH  34  35
ENDBRANCH  31  34
ENDBRANCH  29  30
BRANCH  29  38
HETATM   38  C           0       1.313 -22.669   4.707  0.00  0.00     0.199 C 
BRANCH  38  39
HETATM   39  O           0       2.554 -22.075   4.374  0.00  0.00    -0.398 OA
HETATM   40  H           0       2.507 -21.692   3.482  0.00  0.00     0.209 HD
ENDBRANCH  38  39
ENDBRANCH  29  38
ENDBRANCH  26  29
ENDBRANCH  20  25
ENDBRANCH   5  18
ENDBRANCH   3   5
BRANCH   1  41
HETATM   41  C           0      -1.236 -12.556  10.256  0.00  0.00     0.185 C 
BRANCH  41  42
HETATM   42  C           0      -0.836 -12.148  11.687  0.00  0.00     0.137 C 
BRANCH  42  43
HETATM   43  C           0       0.109 -10.949  11.773  0.00  0.00     0.217 C 
HETATM   44  N           0      -0.464  -9.771  11.443  0.00  0.00    -0.370 N 
HETATM   45  H           0       0.140  -8.964  11.382  0.00  0.00     0.159 HD
HETATM   46  H           0      -1.429  -9.701  11.097  0.00  0.00     0.159 HD
HETATM   47  O           0       1.296 -11.075  12.082  0.00  0.00    -0.274 OA
ENDBRANCH  42  43
ENDBRANCH  41  42
BRANCH  41  48
HETATM   48  N           0      -2.602 -12.095  10.040  0.00  0.00    -0.346 N 
HETATM   49  H           0      -2.741 -11.229   9.537  0.00  0.00     0.163 HD
HETATM   50  C           0      -3.689 -12.708  10.554  0.00  0.00     0.241 C 
HETATM   51  O           0      -3.624 -13.707  11.280  0.00  0.00    -0.271 OA
BRANCH  50  52
HETATM   52  C           0      -5.058 -12.116  10.169  0.00  0.00     0.177 C 
BRANCH  52  53
HETATM   53  N           0      -5.179 -11.882   8.734  0.00  0.00    -0.346 N 
HETATM   54  H           0      -5.531 -12.627   8.146  0.00  0.00     0.163 HD
HETATM   55  C           0      -4.954 -10.658   8.184  0.00  0.00     0.236 C 
HETATM   56  O           0      -4.638  -9.674   8.847  0.00  0.00    -0.272 OA
BRANCH  55  57
HETATM   57  C           0      -5.141 -10.545   6.665  0.00  0.00     0.225 C 
BRANCH  57  58
HETATM   58  N           0      -6.313 -11.250   6.150  0.00  0.00    -0.351 N 
HETATM   59  H           0      -7.191 -10.751   6.155  0.00  0.00     0.163 HD
HETATM   60  C           0      -6.144 -12.388   5.436  0.00  0.00     0.248 C 
HETATM   61  O           0      -5.028 -12.895   5.285  0.00  0.00    -0.271 OA
BRANCH  60  62
HETATM   62  C           0      -7.350 -13.104   4.815  0.00  0.00     0.275 C 
BRANCH  62  63
HETATM   63  N           0      -6.955 -14.260   3.911  0.00  0.00    -0.066 N 
HETATM   64  H           0      -6.315 -13.972   3.161  0.00  0.00     0.275 HD
HETATM   65  H           0      -6.528 -15.047   4.408  0.00  0.00     0.275 HD
HETATM   66  H           0      -7.792 -14.635   3.453  0.00  0.00     0.275 HD
ENDBRANCH  62  63
BRANCH  62  67
HETATM   67  C           0      -8.397 -13.598   5.826  0.00  0.00     0.053 C 
BRANCH  67  68
HETATM   68  C           0      -9.529 -14.429   5.210  0.00  0.00     0.115 C 
BRANCH  68  69
HETATM   69  C           0      -9.538 -15.937   5.532  0.00  0.00     0.172 C 
HETATM   70  O           0     -10.364 -16.373   6.375  0.00  0.00    -0.648 OA
HETATM   71  O           0      -8.673 -16.641   4.918  0.00  0.00    -0.648 OA
ENDBRANCH  68  69
ENDBRANCH  67  68
ENDBRANCH  62  67
ENDBRANCH  60  62
ENDBRANCH  57  58
ENDBRANCH  55  57
ENDBRANCH  52  53
BRANCH  52  72
HETATM   72  C           0      -6.222 -13.023  10.632  0.00  0.00     0.038 C 
BRANCH  72  73
HETATM   73  C           0      -6.574 -14.222   9.731  0.00  0.00    -0.020 C 
HETATM   74  C           0      -6.311 -15.571  10.416  0.00  0.00     0.009 C 
HETATM   75  C           0      -8.043 -14.109   9.292  0.00  0.00     0.009 C 
ENDBRANCH  72  73
ENDBRANCH  52  72
ENDBRANCH  50  52
ENDBRANCH  41  48
ENDBRANCH   1  41
TORSDOF 28
ENDMDL
MODEL 7
REMARK VINA RESULT:      -5.7      2.687     11.100
REMARK  28 active torsions:
REMARK  status: ('A' for Active; 'I' for Inactive)
REMARK       I    between atoms: C_1  and  N_3 
REMARK    1  A    between atoms: C_1  and  C_41 
REMARK    2  A    between atoms: N_3  and  C_5 
REMARK    3  A    between atoms: C_5  and  C_6 
REMARK    4  A    between atoms: C_5  and  C_18 
REMARK       I    between atoms: C_18  and  N_19 
REMARK    5  A    between atoms: C_20  and  C_25 
REMARK       I    between atoms: C_25  and  N_26 
REMARK    6  A    between atoms: N_26  and  C_29 
REMARK    7  A    between atoms: C_29  and  C_30 
REMARK    8  A    between atoms: C_29  and  C_38 
REMARK       I    between atoms: C_30  and  N_31 
REMARK    9  A    between atoms: N_31  and  C_34 
REMARK   10  A    between atoms: C_34  and  C_35 
REMARK   11  A    between atoms: C_38  and  O_39 
REMARK   12  A    between atoms: C_6  and  C_7 
REMARK   13  A    between atoms: C_7  and  C_8 
REMARK   14  A    between atoms: C_8  and  N_9 
REMARK       I    between atoms: N_9  and  C_10 
REMARK       I    between atoms: C_10  and  N_12 
REMARK   15  A    between atoms: C_41  and  C_42 
REMARK   16  A    between atoms: C_41  and  N_48 
REMARK       I    between atoms: N_48  and  C_50 
REMARK   17  A    between atoms: C_50  and  C_52 
REMARK   18  A    between atoms: C_52  and  N_53 
REMARK   19  A    between atoms: C_52  and  C_72 
REMARK       I    between atoms: N_53  and  C_55 
REMARK   20  A    between atoms: C_55  and  C_57 
REMARK   21  A    between atoms: C_57  and  N_58 
REMARK       I    between atoms: N_58  and  C_60 
REMARK   22  A    between atoms: C_60  and  C_62 
REMARK   23  A    between atoms: C_62  and  N_63 
REMARK   24  A    between atoms: C_62  and  C_67 
REMARK   25  A    between atoms: C_67  and  C_68 
REMARK   26  A    between atoms: C_68  and  C_69 
REMARK   27  A    between atoms: C_72  and  C_73 
REMARK   28  A    between atoms: C_42  and  C_43 
REMARK       I    between atoms: C_43  and  N_44 
ROOT
HETATM    1  C           0       2.466 -17.851   8.264  0.00  0.00     0.241 C 
HETATM    2  O           0       2.198 -18.115   9.442  0.00  0.00    -0.271 OA
HETATM    3  N           0       1.510 -17.474   7.383  0.00  0.00    -0.346 N 
HETATM    4  H           0       1.765 -17.300   6.418  0.00  0.00     0.163 HD
ENDROOT
BRANCH   3   5
HETATM    5  C           0       0.155 -17.183   7.845  0.00  0.00     0.176 C 
BRANCH   5   6
HETATM    6  C           0      -0.182 -15.688   7.710  0.00  0.00     0.036 C 
BRANCH   6   7
HETATM    7  C           0      -0.498 -15.071   9.077  0.00  0.00     0.023 C 
BRANCH   7   8
HETATM    8  C           0      -0.543 -13.543   9.079  0.00  0.00     0.138 C 
BRANCH   8   9
HETATM    9  N           0       0.214 -13.084  10.241  0.00  0.00    -0.227 N 
HETATM   10  C           0      -0.027 -11.999  10.971  0.00  0.00     0.665 C 
HETATM   11  N           0      -1.009 -11.142  10.658  0.00  0.00    -0.235 N 
HETATM   12  N           0       0.746 -11.791  12.052  0.00  0.00    -0.235 N 
HETATM   13  H           0      -1.272 -10.407  11.296  0.00  0.00     0.174 HD
HETATM   14  H           0      -1.640 -11.336   9.896  0.00  0.00     0.174 HD
HETATM   15  H           0       0.772 -10.883  12.491  0.00  0.00     0.174 HD
HETATM   16  H           0       1.553 -12.412  12.147  0.00  0.00     0.174 HD
HETATM   17  H           0       1.044 -13.619  10.547  0.00  0.00     0.177 HD
ENDBRANCH   8   9
ENDBRANCH   7   8
ENDBRANCH   6   7
ENDBRANCH   5   6
BRANCH   5  18
HETATM   18  C           0      -0.949 -18.105   7.282  0.00  0.00     0.243 C 
HETATM   19  N           0      -1.845 -18.697   8.117  0.00  0.00    -0.337 N 
HETATM   20  C           0      -2.961 -19.471   7.546  0.00  0.00     0.179 C 
HETATM   21  C           0      -1.640 -19.059   9.536  0.00  0.00     0.127 C 
HETATM   22  C           0      -3.295 -20.541   8.622  0.00  0.00     0.037 C 
HETATM   23  C           0      -2.084 -20.525   9.569  0.00  0.00     0.022 C 
HETATM   24  O           0      -1.020 -18.220   6.055  0.00  0.00    -0.271 OA
BRANCH  20  25
HETATM   25  C           0      -4.213 -18.645   7.203  0.00  0.00     0.241 C 
HETATM   26  N           0      -4.345 -17.423   7.778  0.00  0.00    -0.344 N 
HETATM   27  H           0      -3.622 -17.079   8.405  0.00  0.00     0.163 HD
HETATM   28  O           0      -5.051 -19.126   6.436  0.00  0.00    -0.271 OA
BRANCH  26  29
HETATM   29  C           0      -5.573 -16.649   7.665  0.00  0.00     0.200 C 
BRANCH  29  30
HETATM   30  C           0      -5.422 -15.124   7.827  0.00  0.00     0.242 C 
HETATM   31  N           0      -4.808 -14.445   6.847  0.00  0.00    -0.354 N 
HETATM   32  H           0      -4.487 -14.883   5.988  0.00  0.00     0.162 HD
HETATM   33  O           0      -5.867 -14.587   8.853  0.00  0.00    -0.271 OA
BRANCH  31  34
HETATM   34  C           0      -4.645 -13.003   6.854  0.00  0.00     0.203 C 
BRANCH  34  35
HETATM   35  C           0      -5.861 -12.317   6.168  0.00  0.00     0.307 C 
HETATM   36  O           0      -5.811 -12.219   4.913  0.00  0.00    -0.186 OA
HETATM   37  O           0      -6.767 -11.935   6.948  0.00  0.00    -0.186 OA
ENDBRANCH  34  35
ENDBRANCH  31  34
ENDBRANCH  29  30
BRANCH  29  38
HETATM   38  C           0      -6.646 -17.164   8.648  0.00  0.00     0.199 C 
BRANCH  38  39
HETATM   39  O           0      -7.523 -18.106   8.059  0.00  0.00    -0.398 OA
HETATM   40  H           0      -8.426 -17.969   8.391  0.00  0.00     0.209 HD
ENDBRANCH  38  39
ENDBRANCH  29  38
ENDBRANCH  26  29
ENDBRANCH  20  25
ENDBRANCH   5  18
ENDBRANCH   3   5
BRANCH   1  41
HETATM   41  C           0       3.920 -17.890   7.748  0.00  0.00     0.185 C 
BRANCH  41  42
HETATM   42  C           0       4.048 -17.363   6.306  0.00  0.00     0.137 C 
BRANCH  42  43
HETATM   43  C           0       5.359 -17.720   5.606  0.00  0.00     0.217 C 
HETATM   44  N           0       5.199 -18.346   4.420  0.00  0.00    -0.370 N 
HETATM   45  H           0       6.030 -18.697   3.966  0.00  0.00     0.159 HD
HETATM   46  H           0       4.278 -18.621   4.058  0.00  0.00     0.159 HD
HETATM   47  O           0       6.457 -17.481   6.115  0.00  0.00    -0.274 OA
ENDBRANCH  42  43
ENDBRANCH  41  42
BRANCH  41  48
HETATM   48  N           0       4.474 -19.238   7.768  0.00  0.00    -0.346 N 
HETATM   49  H           0       4.233 -19.866   7.012  0.00  0.00     0.163 HD
HETATM   50  C           0       5.214 -19.729   8.783  0.00  0.00     0.241 C 
HETATM   51  O           0       5.471 -19.086   9.808  0.00  0.00    -0.271 OA
BRANCH  50  52
HETATM   52  C           0       5.770 -21.154   8.603  0.00  0.00     0.177 C 
BRANCH  52  53
HETATM   53  N           0       5.382 -21.746   7.326  0.00  0.00    -0.346 N 
HETATM   54  H           0       5.797 -21.385   6.476  0.00  0.00     0.163 HD
HETATM   55  C           0       4.583 -22.843   7.256  0.00  0.00     0.236 C 
HETATM   56  O           0       4.134 -23.410   8.249  0.00  0.00    -0.272 OA
BRANCH  55  57
HETATM   57  C           0       4.274 -23.377   5.850  0.00  0.00     0.225 C 
BRANCH  57  58
HETATM   58  N           0       3.042 -22.850   5.265  0.00  0.00    -0.351 N 
HETATM   59  H           0       3.096 -21.948   4.813  0.00  0.00     0.163 HD
HETATM   60  C           0       1.984 -23.674   5.087  0.00  0.00     0.248 C 
HETATM   61  O           0       2.001 -24.842   5.490  0.00  0.00    -0.271 OA
BRANCH  60  62
HETATM   62  C           0       0.709 -23.169   4.401  0.00  0.00     0.275 C 
BRANCH  62  63
HETATM   63  N           0       0.263 -24.051   3.247  0.00  0.00    -0.066 N 
HETATM   64  H           0       0.605 -25.015   3.334  0.00  0.00     0.275 HD
HETATM   65  H           0      -0.753 -24.085   3.121  0.00  0.00     0.275 HD
HETATM   66  H           0       0.646 -23.683   2.370  0.00  0.00     0.275 HD
ENDBRANCH  62  63
BRANCH  62  67
HETATM   67  C           0      -0.484 -22.943   5.345  0.00  0.00     0.053 C 
BRANCH  67  68
HETATM   68  C           0      -0.443 -21.615   6.110  0.00  0.00     0.115 C 
BRANCH  68  69
HETATM   69  C           0       0.700 -21.435   7.129  0.00  0.00     0.172 C 
HETATM   70  O           0       0.667 -22.092   8.202  0.00  0.00    -0.648 OA
HETATM   71  O           0       1.605 -20.598   6.808  0.00  0.00    -0.648 OA
ENDBRANCH  68  69
ENDBRANCH  67  68
ENDBRANCH  62  67
ENDBRANCH  60  62
ENDBRANCH  57  58
ENDBRANCH  55  57
ENDBRANCH  52  53
BRANCH  52  72
HETATM   72  C           0       7.311 -21.187   8.727  0.00  0.00     0.038 C 
BRANCH  72  73
HETATM   73  C           0       8.103 -21.612   7.477  0.00  0.00    -0.020 C 
HETATM   74  C           0       8.788 -20.426   6.781  0.00  0.00     0.009 C 
HETATM   75  C           0       9.132 -22.683   7.872  0.00  0.00     0.009 C 
ENDBRANCH  72  73
ENDBRANCH  52  72
ENDBRANCH  50  52
ENDBRANCH  41  48
ENDBRANCH   1  41
TORSDOF 28
ENDMDL
MODEL 8
REMARK VINA RESULT:      -5.6     16.582     20.989
REMARK  28 active torsions:
REMARK  status: ('A' for Active; 'I' for Inactive)
REMARK       I    between atoms: C_1  and  N_3 
REMARK    1  A    between atoms: C_1  and  C_41 
REMARK    2  A    between atoms: N_3  and  C_5 
REMARK    3  A    between atoms: C_5  and  C_6 
REMARK    4  A    between atoms: C_5  and  C_18 
REMARK       I    between atoms: C_18  and  N_19 
REMARK    5  A    between atoms: C_20  and  C_25 
REMARK       I    between atoms: C_25  and  N_26 
REMARK    6  A    between atoms: N_26  and  C_29 
REMARK    7  A    between atoms: C_29  and  C_30 
REMARK    8  A    between atoms: C_29  and  C_38 
REMARK       I    between atoms: C_30  and  N_31 
REMARK    9  A    between atoms: N_31  and  C_34 
REMARK   10  A    between atoms: C_34  and  C_35 
REMARK   11  A    between atoms: C_38  and  O_39 
REMARK   12  A    between atoms: C_6  and  C_7 
REMARK   13  A    between atoms: C_7  and  C_8 
REMARK   14  A    between atoms: C_8  and  N_9 
REMARK       I    between atoms: N_9  and  C_10 
REMARK       I    between atoms: C_10  and  N_12 
REMARK   15  A    between atoms: C_41  and  C_42 
REMARK   16  A    between atoms: C_41  and  N_48 
REMARK       I    between atoms: N_48  and  C_50 
REMARK   17  A    between atoms: C_50  and  C_52 
REMARK   18  A    between atoms: C_52  and  N_53 
REMARK   19  A    between atoms: C_52  and  C_72 
REMARK       I    between atoms: N_53  and  C_55 
REMARK   20  A    between atoms: C_55  and  C_57 
REMARK   21  A    between atoms: C_57  and  N_58 
REMARK       I    between atoms: N_58  and  C_60 
REMARK   22  A    between atoms: C_60  and  C_62 
REMARK   23  A    between atoms: C_62  and  N_63 
REMARK   24  A    between atoms: C_62  and  C_67 
REMARK   25  A    between atoms: C_67  and  C_68 
REMARK   26  A    between atoms: C_68  and  C_69 
REMARK   27  A    between atoms: C_72  and  C_73 
REMARK   28  A    between atoms: C_42  and  C_43 
REMARK       I    between atoms: C_43  and  N_44 
ROOT
HETATM    1  C           0      -3.803   1.460   9.350  0.00  0.00     0.241 C 
HETATM    2  O           0      -3.371   1.276  10.494  0.00  0.00    -0.271 OA
HETATM    3  N           0      -3.067   2.087   8.402  0.00  0.00    -0.346 N 
HETATM    4  H           0      -3.470   2.251   7.487  0.00  0.00     0.163 HD
ENDROOT
BRANCH   3   5
HETATM    5  C           0      -1.660   2.396   8.647  0.00  0.00     0.176 C 
BRANCH   5   6
HETATM    6  C           0      -0.742   1.235   8.228  0.00  0.00     0.036 C 
BRANCH   6   7
HETATM    7  C           0       0.537   1.214   9.072  0.00  0.00     0.023 C 
BRANCH   7   8
HETATM    8  C           0       0.665  -0.006   9.985  0.00  0.00     0.138 C 
BRANCH   8   9
HETATM    9  N           0      -0.680  -0.370  10.420  0.00  0.00    -0.227 N 
HETATM   10  C           0      -1.054  -1.519  10.976  0.00  0.00     0.665 C 
HETATM   11  N           0      -0.194  -2.532  11.148  0.00  0.00    -0.235 N 
HETATM   12  N           0      -2.334  -1.631  11.377  0.00  0.00    -0.235 N 
HETATM   13  H           0      -0.452  -3.338  11.697  0.00  0.00     0.174 HD
HETATM   14  H           0       0.782  -2.424  10.922  0.00  0.00     0.174 HD
HETATM   15  H           0      -2.727  -2.538  11.574  0.00  0.00     0.174 HD
HETATM   16  H           0      -2.956  -0.870  11.092  0.00  0.00     0.174 HD
HETATM   17  H           0      -1.456   0.299  10.280  0.00  0.00     0.177 HD
ENDBRANCH   8   9
ENDBRANCH   7   8
ENDBRANCH   6   7
ENDBRANCH   5   6
BRANCH   5  18
HETATM   18  C           0      -1.181   3.766   8.119  0.00  0.00     0.243 C 
HETATM   19  N           0      -0.515   4.626   8.935  0.00  0.00    -0.337 N 
HETATM   20  C           0       0.038   5.871   8.374  0.00  0.00     0.179 C 
HETATM   21  C           0      -0.626   4.728  10.406  0.00  0.00     0.127 C 
HETATM   22  C           0       0.036   6.877   9.560  0.00  0.00     0.037 C 
HETATM   23  C           0      -0.874   6.226  10.614  0.00  0.00     0.022 C 
HETATM   24  O           0      -1.368   4.008   6.923  0.00  0.00    -0.271 OA
BRANCH  20  25
HETATM   25  C           0       1.451   5.743   7.781  0.00  0.00     0.241 C 
HETATM   26  N           0       2.485   5.546   8.639  0.00  0.00    -0.344 N 
HETATM   27  H           0       2.306   5.478   9.638  0.00  0.00     0.163 HD
HETATM   28  O           0       1.595   5.838   6.560  0.00  0.00    -0.271 OA
BRANCH  26  29
HETATM   29  C           0       3.871   5.597   8.198  0.00  0.00     0.200 C 
BRANCH  29  30
HETATM   30  C           0       4.569   4.235   8.019  0.00  0.00     0.242 C 
HETATM   31  N           0       4.861   3.836   6.774  0.00  0.00    -0.354 N 
HETATM   32  H           0       4.688   4.412   5.953  0.00  0.00     0.162 HD
HETATM   33  O           0       4.829   3.563   9.029  0.00  0.00    -0.271 OA
BRANCH  31  34
HETATM   34  C           0       5.560   2.600   6.472  0.00  0.00     0.203 C 
BRANCH  34  35
HETATM   35  C           0       7.095   2.844   6.423  0.00  0.00     0.307 C 
HETATM   36  O           0       7.757   2.434   7.415  0.00  0.00    -0.186 OA
HETATM   37  O           0       7.510   3.426   5.392  0.00  0.00    -0.186 OA
ENDBRANCH  34  35
ENDBRANCH  31  34
ENDBRANCH  29  30
BRANCH  29  38
HETATM   38  C           0       4.717   6.489   9.132  0.00  0.00     0.199 C 
BRANCH  38  39
HETATM   39  O           0       4.309   7.844   9.115  0.00  0.00    -0.398 OA
HETATM   40  H           0       3.543   7.950   8.526  0.00  0.00     0.209 HD
ENDBRANCH  38  39
ENDBRANCH  29  38
ENDBRANCH  26  29
ENDBRANCH  20  25
ENDBRANCH   5  18
ENDBRANCH   3   5
BRANCH   1  41
HETATM   41  C           0      -5.193   0.940   8.928  0.00  0.00     0.185 C 
BRANCH  41  42
HETATM   42  C           0      -5.350  -0.575   9.155  0.00  0.00     0.137 C 
BRANCH  42  43
HETATM   43  C           0      -6.792  -1.053   9.324  0.00  0.00     0.217 C 
HETATM   44  N           0      -6.938  -2.069  10.202  0.00  0.00    -0.370 N 
HETATM   45  H           0      -7.852  -2.492  10.274  0.00  0.00     0.159 HD
HETATM   46  H           0      -6.139  -2.525  10.660  0.00  0.00     0.159 HD
HETATM   47  O           0      -7.722  -0.565   8.676  0.00  0.00    -0.274 OA
ENDBRANCH  42  43
ENDBRANCH  41  42
BRANCH  41  48
HETATM   48  N           0      -5.473   1.199   7.520  0.00  0.00    -0.346 N 
HETATM   49  H           0      -4.896   0.741   6.826  0.00  0.00     0.163 HD
HETATM   50  C           0      -6.393   2.086   7.090  0.00  0.00     0.241 C 
HETATM   51  O           0      -7.072   2.783   7.854  0.00  0.00    -0.271 OA
BRANCH  50  52
HETATM   52  C           0      -6.597   2.181   5.566  0.00  0.00     0.177 C 
BRANCH  52  53
HETATM   53  N           0      -5.989   3.381   4.998  0.00  0.00    -0.346 N 
HETATM   54  H           0      -6.592   4.128   4.677  0.00  0.00     0.163 HD
HETATM   55  C           0      -4.643   3.576   5.002  0.00  0.00     0.236 C 
HETATM   56  O           0      -3.851   2.767   5.479  0.00  0.00    -0.272 OA
BRANCH  55  57
HETATM   57  C           0      -4.139   4.892   4.394  0.00  0.00     0.225 C 
BRANCH  57  58
HETATM   58  N           0      -3.946   5.966   5.366  0.00  0.00    -0.351 N 
HETATM   59  H           0      -2.998   6.164   5.653  0.00  0.00     0.163 HD
HETATM   60  C           0      -4.960   6.827   5.618  0.00  0.00     0.248 C 
HETATM   61  O           0      -6.077   6.673   5.112  0.00  0.00    -0.271 OA
BRANCH  60  62
HETATM   62  C           0      -4.759   8.011   6.571  0.00  0.00     0.275 C 
BRANCH  62  63
HETATM   63  N           0      -5.481   9.269   6.118  0.00  0.00    -0.066 N 
HETATM   64  H           0      -5.076  10.122   6.519  0.00  0.00     0.275 HD
HETATM   65  H           0      -5.516   9.383   5.100  0.00  0.00     0.275 HD
HETATM   66  H           0      -6.457   9.233   6.432  0.00  0.00     0.275 HD
ENDBRANCH  62  63
BRANCH  62  67
HETATM   67  C           0      -5.124   7.727   8.037  0.00  0.00     0.053 C 
BRANCH  67  68
HETATM   68  C           0      -4.024   7.022   8.838  0.00  0.00     0.115 C 
BRANCH  68  69
HETATM   69  C           0      -4.264   5.541   9.193  0.00  0.00     0.172 C 
HETATM   70  O           0      -4.262   5.198  10.405  0.00  0.00    -0.648 OA
HETATM   71  O           0      -4.431   4.752   8.207  0.00  0.00    -0.648 OA
ENDBRANCH  68  69
ENDBRANCH  67  68
ENDBRANCH  62  67
ENDBRANCH  60  62
ENDBRANCH  57  58
ENDBRANCH  55  57
ENDBRANCH  52  53
BRANCH  52  72
HETATM   72  C           0      -6.038   0.939   4.836  0.00  0.00     0.038 C 
BRANCH  72  73
HETATM   73  C           0      -7.053   0.055   4.085  0.00  0.00    -0.020 C 
HETATM   74  C           0      -6.395  -1.165   3.423  0.00  0.00     0.009 C 
HETATM   75  C           0      -8.160  -0.380   5.057  0.00  0.00     0.009 C 
ENDBRANCH  72  73
ENDBRANCH  52  72
ENDBRANCH  50  52
ENDBRANCH  41  48
ENDBRANCH   1  41
TORSDOF 28
ENDMDL
MODEL 9
REMARK VINA RESULT:      -5.6      3.696      8.767
REMARK  28 active torsions:
REMARK  status: ('A' for Active; 'I' for Inactive)
REMARK       I    between atoms: C_1  and  N_3 
REMARK    1  A    between atoms: C_1  and  C_41 
REMARK    2  A    between atoms: N_3  and  C_5 
REMARK    3  A    between atoms: C_5  and  C_6 
REMARK    4  A    between atoms: C_5  and  C_18 
REMARK       I    between atoms: C_18  and  N_19 
REMARK    5  A    between atoms: C_20  and  C_25 
REMARK       I    between atoms: C_25  and  N_26 
REMARK    6  A    between atoms: N_26  and  C_29 
REMARK    7  A    between atoms: C_29  and  C_30 
REMARK    8  A    between atoms: C_29  and  C_38 
REMARK       I    between atoms: C_30  and  N_31 
REMARK    9  A    between atoms: N_31  and  C_34 
REMARK   10  A    between atoms: C_34  and  C_35 
REMARK   11  A    between atoms: C_38  and  O_39 
REMARK   12  A    between atoms: C_6  and  C_7 
REMARK   13  A    between atoms: C_7  and  C_8 
REMARK   14  A    between atoms: C_8  and  N_9 
REMARK       I    between atoms: N_9  and  C_10 
REMARK       I    between atoms: C_10  and  N_12 
REMARK   15  A    between atoms: C_41  and  C_42 
REMARK   16  A    between atoms: C_41  and  N_48 
REMARK       I    between atoms: N_48  and  C_50 
REMARK   17  A    between atoms: C_50  and  C_52 
REMARK   18  A    between atoms: C_52  and  N_53 
REMARK   19  A    between atoms: C_52  and  C_72 
REMARK       I    between atoms: N_53  and  C_55 
REMARK   20  A    between atoms: C_55  and  C_57 
REMARK   21  A    between atoms: C_57  and  N_58 
REMARK       I    between atoms: N_58  and  C_60 
REMARK   22  A    between atoms: C_60  and  C_62 
REMARK   23  A    between atoms: C_62  and  N_63 
REMARK   24  A    between atoms: C_62  and  C_67 
REMARK   25  A    between atoms: C_67  and  C_68 
REMARK   26  A    between atoms: C_68  and  C_69 
REMARK   27  A    between atoms: C_72  and  C_73 
REMARK   28  A    between atoms: C_42  and  C_43 
REMARK       I    between atoms: C_43  and  N_44 
ROOT
HETATM    1  C           0      -0.930 -20.717   5.494  0.00  0.00     0.241 C 
HETATM    2  O           0      -0.971 -19.847   4.617  0.00  0.00    -0.271 OA
HETATM    3  N           0      -1.510 -21.929   5.323  0.00  0.00    -0.346 N 
HETATM    4  H           0      -1.485 -22.603   6.079  0.00  0.00     0.163 HD
ENDROOT
BRANCH   3   5
HETATM    5  C           0      -2.039 -22.315   4.017  0.00  0.00     0.176 C 
BRANCH   5   6
HETATM    6  C           0      -1.576 -23.723   3.610  0.00  0.00     0.036 C 
BRANCH   6   7
HETATM    7  C           0      -0.870 -24.427   4.775  0.00  0.00     0.023 C 
BRANCH   7   8
HETATM    8  C           0       0.567 -24.851   4.472  0.00  0.00     0.138 C 
BRANCH   8   9
HETATM    9  N           0       1.325 -23.642   4.166  0.00  0.00    -0.227 N 
HETATM   10  C           0       2.022 -22.900   5.022  0.00  0.00     0.665 C 
HETATM   11  N           0       2.050 -23.175   6.333  0.00  0.00    -0.235 N 
HETATM   12  N           0       2.716 -21.860   4.524  0.00  0.00    -0.235 N 
HETATM   13  H           0       2.692 -22.695   6.945  0.00  0.00     0.174 HD
HETATM   14  H           0       1.596 -23.998   6.697  0.00  0.00     0.174 HD
HETATM   15  H           0       3.055 -21.135   5.138  0.00  0.00     0.174 HD
HETATM   16  H           0       2.539 -21.637   3.542  0.00  0.00     0.174 HD
HETATM   17  H           0       1.329 -23.279   3.197  0.00  0.00     0.177 HD
ENDBRANCH   8   9
ENDBRANCH   7   8
ENDBRANCH   6   7
ENDBRANCH   5   6
BRANCH   5  18
HETATM   18  C           0      -3.557 -22.099   3.828  0.00  0.00     0.243 C 
HETATM   19  N           0      -4.445 -23.046   4.236  0.00  0.00    -0.337 N 
HETATM   20  C           0      -5.888 -22.762   4.158  0.00  0.00     0.179 C 
HETATM   21  C           0      -4.210 -24.501   4.347  0.00  0.00     0.127 C 
HETATM   22  C           0      -6.556 -24.153   3.968  0.00  0.00     0.037 C 
HETATM   23  C           0      -5.399 -25.085   3.577  0.00  0.00     0.022 C 
HETATM   24  O           0      -3.921 -21.016   3.361  0.00  0.00    -0.271 OA
BRANCH  20  25
HETATM   25  C           0      -6.476 -22.047   5.387  0.00  0.00     0.241 C 
HETATM   26  N           0      -6.318 -20.702   5.475  0.00  0.00    -0.344 N 
HETATM   27  H           0      -5.832 -20.201   4.735  0.00  0.00     0.163 HD
HETATM   28  O           0      -7.050 -22.719   6.248  0.00  0.00    -0.271 OA
BRANCH  26  29
HETATM   29  C           0      -6.671 -19.964   6.679  0.00  0.00     0.200 C 
BRANCH  29  30
HETATM   30  C           0      -7.724 -18.853   6.500  0.00  0.00     0.242 C 
HETATM   31  N           0      -7.908 -17.991   7.510  0.00  0.00    -0.354 N 
HETATM   32  H           0      -7.350 -18.009   8.360  0.00  0.00     0.162 HD
HETATM   33  O           0      -8.362 -18.803   5.437  0.00  0.00    -0.271 OA
BRANCH  31  34
HETATM   34  C           0      -8.831 -16.873   7.450  0.00  0.00     0.203 C 
BRANCH  34  35
HETATM   35  C           0      -8.060 -15.527   7.555  0.00  0.00     0.307 C 
HETATM   36  O           0      -8.714 -14.542   7.992  0.00  0.00    -0.186 OA
HETATM   37  O           0      -6.860 -15.570   7.191  0.00  0.00    -0.186 OA
ENDBRANCH  34  35
ENDBRANCH  31  34
ENDBRANCH  29  30
BRANCH  29  38
HETATM   38  C           0      -5.415 -19.374   7.356  0.00  0.00     0.199 C 
BRANCH  38  39
HETATM   39  O           0      -5.048 -18.113   6.827  0.00  0.00    -0.398 OA
HETATM   40  H           0      -5.417 -18.011   5.933  0.00  0.00     0.209 HD
ENDBRANCH  38  39
ENDBRANCH  29  38
ENDBRANCH  26  29
ENDBRANCH  20  25
ENDBRANCH   5  18
ENDBRANCH   3   5
BRANCH   1  41
HETATM   41  C           0      -0.171 -20.484   6.817  0.00  0.00     0.185 C 
BRANCH  41  42
HETATM   42  C           0      -1.118 -20.334   8.023  0.00  0.00     0.137 C 
BRANCH  42  43
HETATM   43  C           0      -1.637 -18.916   8.259  0.00  0.00     0.217 C 
HETATM   44  N           0      -1.665 -18.548   9.559  0.00  0.00    -0.370 N 
HETATM   45  H           0      -2.096 -17.662   9.780  0.00  0.00     0.159 HD
HETATM   46  H           0      -1.426 -19.192  10.323  0.00  0.00     0.159 HD
HETATM   47  O           0      -2.027 -18.200   7.333  0.00  0.00    -0.274 OA
ENDBRANCH  42  43
ENDBRANCH  41  42
BRANCH  41  48
HETATM   48  N           0       0.662 -19.288   6.770  0.00  0.00    -0.346 N 
HETATM   49  H           0       0.234 -18.419   6.478  0.00  0.00     0.163 HD
HETATM   50  C           0       1.991 -19.292   7.000  0.00  0.00     0.241 C 
HETATM   51  O           0       2.634 -20.319   7.249  0.00  0.00    -0.271 OA
BRANCH  50  52
HETATM   52  C           0       2.698 -17.923   6.968  0.00  0.00     0.177 C 
BRANCH  52  53
HETATM   53  N           0       1.832 -16.839   7.418  0.00  0.00    -0.346 N 
HETATM   54  H           0       1.574 -16.115   6.759  0.00  0.00     0.163 HD
HETATM   55  C           0       1.262 -16.839   8.653  0.00  0.00     0.236 C 
HETATM   56  O           0       1.432 -17.741   9.469  0.00  0.00    -0.272 OA
BRANCH  55  57
HETATM   57  C           0       0.352 -15.649   8.988  0.00  0.00     0.225 C 
BRANCH  57  58
HETATM   58  N           0      -0.673 -15.375   7.983  0.00  0.00    -0.351 N 
HETATM   59  H           0      -0.621 -15.893   7.118  0.00  0.00     0.163 HD
HETATM   60  C           0      -1.785 -14.689   8.337  0.00  0.00     0.248 C 
HETATM   61  O           0      -1.915 -14.210   9.468  0.00  0.00    -0.271 OA
BRANCH  60  62
HETATM   62  C           0      -2.913 -14.459   7.324  0.00  0.00     0.275 C 
BRANCH  62  63
HETATM   63  N           0      -3.955 -15.565   7.330  0.00  0.00    -0.066 N 
HETATM   64  H           0      -4.148 -15.929   6.391  0.00  0.00     0.275 HD
HETATM   65  H           0      -3.715 -16.356   7.935  0.00  0.00     0.275 HD
HETATM   66  H           0      -4.842 -15.195   7.688  0.00  0.00     0.275 HD
ENDBRANCH  62  63
BRANCH  62  67
HETATM   67  C           0      -3.626 -13.102   7.450  0.00  0.00     0.053 C 
BRANCH  67  68
HETATM   68  C           0      -4.816 -12.921   6.501  0.00  0.00     0.115 C 
BRANCH  68  69
HETATM   69  C           0      -5.963 -12.014   6.989  0.00  0.00     0.172 C 
HETATM   70  O           0      -5.753 -11.237   7.957  0.00  0.00    -0.648 OA
HETATM   71  O           0      -7.071 -12.138   6.374  0.00  0.00    -0.648 OA
ENDBRANCH  68  69
ENDBRANCH  67  68
ENDBRANCH  62  67
ENDBRANCH  60  62
ENDBRANCH  57  58
ENDBRANCH  55  57
ENDBRANCH  52  53
BRANCH  52  72
HETATM   72  C           0       3.987 -17.927   7.823  0.00  0.00     0.038 C 
BRANCH  72  73
HETATM   73  C           0       5.321 -17.744   7.075  0.00  0.00    -0.020 C 
HETATM   74  C           0       6.304 -18.895   7.333  0.00  0.00     0.009 C 
HETATM   75  C           0       5.040 -17.591   5.572  0.00  0.00     0.009 C 
ENDBRANCH  72  73
ENDBRANCH  52  72
ENDBRANCH  50  52
ENDBRANCH  41  48
ENDBRANCH   1  41
TORSDOF 28
ENDMDL
