MODEL 1
REMARK VINA RESULT:      -5.5      0.000      0.000
REMARK  28 active torsions:
REMARK  status: ('A' for Active; 'I' for Inactive)
REMARK       I    between atoms: C_1  and  N_3 
REMARK    1  A    between atoms: C_1  and  C_41 
REMARK    2  A    between atoms: N_3  and  C_5 
REMARK    3  A    between atoms: C_5  and  C_6 
REMARK    4  A    between atoms: C_5  and  C_18 
REMARK       I    between atoms: C_18  and  N_19 
REMARK    5  A    between atoms: C_20  and  C_25 
REMARK       I    between atoms: C_25  and  N_26 
REMARK    6  A    between atoms: N_26  and  C_29 
REMARK    7  A    between atoms: C_29  and  C_30 
REMARK    8  A    between atoms: C_29  and  C_38 
REMARK       I    between atoms: C_30  and  N_31 
REMARK    9  A    between atoms: N_31  and  C_34 
REMARK   10  A    between atoms: C_34  and  C_35 
REMARK   11  A    between atoms: C_38  and  O_39 
REMARK   12  A    between atoms: C_6  and  C_7 
REMARK   13  A    between atoms: C_7  and  C_8 
REMARK   14  A    between atoms: C_8  and  N_9 
REMARK       I    between atoms: N_9  and  C_10 
REMARK       I    between atoms: C_10  and  N_12 
REMARK   15  A    between atoms: C_41  and  C_42 
REMARK   16  A    between atoms: C_41  and  N_48 
REMARK       I    between atoms: N_48  and  C_50 
REMARK   17  A    between atoms: C_50  and  C_52 
REMARK   18  A    between atoms: C_52  and  N_53 
REMARK   19  A    between atoms: C_52  and  C_72 
REMARK       I    between atoms: N_53  and  C_55 
REMARK   20  A    between atoms: C_55  and  C_57 
REMARK   21  A    between atoms: C_57  and  N_58 
REMARK       I    between atoms: N_58  and  C_60 
REMARK   22  A    between atoms: C_60  and  C_62 
REMARK   23  A    between atoms: C_62  and  N_63 
REMARK   24  A    between atoms: C_62  and  C_67 
REMARK   25  A    between atoms: C_67  and  C_68 
REMARK   26  A    between atoms: C_68  and  C_69 
REMARK   27  A    between atoms: C_72  and  C_73 
REMARK   28  A    between atoms: C_42  and  C_43 
REMARK       I    between atoms: C_43  and  N_44 
ROOT
HETATM    1  C           0      -2.673   7.112   8.576  0.00  0.00     0.241 C 
HETATM    2  O           0      -2.765   6.515   9.655  0.00  0.00    -0.271 OA
HETATM    3  N           0      -3.323   6.686   7.468  0.00  0.00    -0.346 N 
HETATM    4  H           0      -3.194   7.181   6.594  0.00  0.00     0.163 HD
ENDROOT
BRANCH   3   5
HETATM    5  C           0      -4.310   5.611   7.560  0.00  0.00     0.176 C 
BRANCH   5   6
HETATM    6  C           0      -5.734   6.124   7.290  0.00  0.00     0.036 C 
BRANCH   6   7
HETATM    7  C           0      -5.743   7.645   7.099  0.00  0.00     0.023 C 
BRANCH   7   8
HETATM    8  C           0      -6.392   8.109   5.795  0.00  0.00     0.138 C 
BRANCH   8   9
HETATM    9  N           0      -5.327   8.273   4.809  0.00  0.00    -0.227 N 
HETATM   10  C           0      -5.017   7.434   3.825  0.00  0.00     0.665 C 
HETATM   11  N           0      -5.650   6.264   3.669  0.00  0.00    -0.235 N 
HETATM   12  N           0      -4.043   7.806   2.973  0.00  0.00    -0.235 N 
HETATM   13  H           0      -5.505   5.707   2.840  0.00  0.00     0.174 HD
HETATM   14  H           0      -6.431   6.018   4.256  0.00  0.00     0.174 HD
HETATM   15  H           0      -3.607   7.124   2.372  0.00  0.00     0.174 HD
HETATM   16  H           0      -3.521   8.645   3.235  0.00  0.00     0.174 HD
HETATM   17  H           0      -4.714   9.104   4.860  0.00  0.00     0.177 HD
ENDBRANCH   8   9
ENDBRANCH   7   8
ENDBRANCH   6   7
ENDBRANCH   5   6
BRANCH   5  18
HETATM   18  C           0      -3.969   4.329   6.768  0.00  0.00     0.243 C 
HETATM   19  N           0      -3.627   3.186   7.421  0.00  0.00    -0.337 N 
HETATM   20  C           0      -3.428   1.947   6.649  0.00  0.00     0.179 C 
HETATM   21  C           0      -2.992   3.072   8.752  0.00  0.00     0.127 C 
HETATM   22  C           0      -2.401   1.125   7.476  0.00  0.00     0.037 C 
HETATM   23  C           0      -1.812   2.136   8.473  0.00  0.00     0.022 C 
HETATM   24  O           0      -4.087   4.374   5.540  0.00  0.00    -0.271 OA
BRANCH  20  25
HETATM   25  C           0      -4.704   1.123   6.405  0.00  0.00     0.241 C 
HETATM   26  N           0      -5.435   1.399   5.295  0.00  0.00    -0.344 N 
HETATM   27  H           0      -5.125   2.125   4.653  0.00  0.00     0.163 HD
HETATM   28  O           0      -5.022   0.260   7.227  0.00  0.00    -0.271 OA
BRANCH  26  29
HETATM   29  C           0      -6.747   0.809   5.072  0.00  0.00     0.200 C 
BRANCH  29  30
HETATM   30  C           0      -6.770  -0.468   4.210  0.00  0.00     0.242 C 
HETATM   31  N           0      -7.760  -1.348   4.414  0.00  0.00    -0.354 N 
HETATM   32  H           0      -8.518  -1.185   5.073  0.00  0.00     0.162 HD
HETATM   33  O           0      -5.874  -0.634   3.368  0.00  0.00    -0.271 OA
BRANCH  31  34
HETATM   34  C           0      -7.925  -2.563   3.638  0.00  0.00     0.203 C 
BRANCH  34  35
HETATM   35  C           0      -9.005  -2.361   2.537  0.00  0.00     0.307 C 
HETATM   36  O           0      -9.757  -1.358   2.670  0.00  0.00    -0.186 OA
HETATM   37  O           0      -9.008  -3.226   1.628  0.00  0.00    -0.186 OA
ENDBRANCH  34  35
ENDBRANCH  31  34
ENDBRANCH  29  30
BRANCH  29  38
HETATM   38  C           0      -7.727   1.844   4.481  0.00  0.00     0.199 C 
BRANCH  38  39
HETATM   39  O           0      -8.455   1.341   3.375  0.00  0.00    -0.398 OA
HETATM   40  H           0      -9.323   1.775   3.327  0.00  0.00     0.209 HD
ENDBRANCH  38  39
ENDBRANCH  29  38
ENDBRANCH  26  29
ENDBRANCH  20  25
ENDBRANCH   5  18
ENDBRANCH   3   5
BRANCH   1  41
HETATM   41  C           0      -1.846   8.409   8.448  0.00  0.00     0.185 C 
BRANCH  41  42
HETATM   42  C           0      -2.552   9.477   7.592  0.00  0.00     0.137 C 
BRANCH  42  43
HETATM   43  C           0      -1.629  10.278   6.674  0.00  0.00     0.217 C 
HETATM   44  N           0      -1.732   9.951   5.367  0.00  0.00    -0.370 N 
HETATM   45  H           0      -1.071  10.374   4.731  0.00  0.00     0.159 HD
HETATM   46  H           0      -2.325   9.182   5.033  0.00  0.00     0.159 HD
HETATM   47  O           0      -0.841  11.119   7.113  0.00  0.00    -0.274 OA
ENDBRANCH  42  43
ENDBRANCH  41  42
BRANCH  41  48
HETATM   48  N           0      -0.538   8.169   7.849  0.00  0.00    -0.346 N 
HETATM   49  H           0      -0.451   8.244   6.844  0.00  0.00     0.163 HD
HETATM   50  C           0       0.542   7.762   8.547  0.00  0.00     0.241 C 
HETATM   51  O           0       0.516   7.528   9.762  0.00  0.00    -0.271 OA
BRANCH  50  52
HETATM   52  C           0       1.858   7.621   7.759  0.00  0.00     0.177 C 
BRANCH  52  53
HETATM   53  N           0       2.441   8.914   7.415  0.00  0.00    -0.346 N 
HETATM   54  H           0       3.142   9.311   8.028  0.00  0.00     0.163 HD
HETATM   55  C           0       2.165   9.536   6.238  0.00  0.00     0.236 C 
HETATM   56  O           0       1.415   9.062   5.389  0.00  0.00    -0.272 OA
BRANCH  55  57
HETATM   57  C           0       2.866  10.880   5.992  0.00  0.00     0.225 C 
BRANCH  57  58
HETATM   58  N           0       2.123  12.042   6.475  0.00  0.00    -0.351 N 
HETATM   59  H           0       1.320  12.333   5.936  0.00  0.00     0.163 HD
HETATM   60  C           0       2.338  12.493   7.733  0.00  0.00     0.248 C 
HETATM   61  O           0       3.213  12.002   8.454  0.00  0.00    -0.271 OA
BRANCH  60  62
HETATM   62  C           0       1.514  13.659   8.294  0.00  0.00     0.275 C 
BRANCH  62  63
HETATM   63  N           0       2.350  14.653   9.082  0.00  0.00    -0.066 N 
HETATM   64  H           0       3.040  15.139   8.498  0.00  0.00     0.275 HD
HETATM   65  H           0       1.796  15.361   9.574  0.00  0.00     0.275 HD
HETATM   66  H           0       2.879  14.155   9.806  0.00  0.00     0.275 HD
ENDBRANCH  62  63
BRANCH  62  67
HETATM   67  C           0       0.685  14.423   7.249  0.00  0.00     0.053 C 
BRANCH  67  68
HETATM   68  C           0       0.949  15.933   7.213  0.00  0.00     0.115 C 
BRANCH  68  69
HETATM   69  C           0       1.974  16.434   6.176  0.00  0.00     0.172 C 
HETATM   70  O           0       1.564  17.096   5.186  0.00  0.00    -0.648 OA
HETATM   71  O           0       3.187  16.115   6.394  0.00  0.00    -0.648 OA
ENDBRANCH  68  69
ENDBRANCH  67  68
ENDBRANCH  62  67
ENDBRANCH  60  62
ENDBRANCH  57  58
ENDBRANCH  55  57
ENDBRANCH  52  53
BRANCH  52  72
HETATM   72  C           0       2.903   6.787   8.536  0.00  0.00     0.038 C 
BRANCH  72  73
HETATM   73  C           0       3.491   5.559   7.815  0.00  0.00    -0.020 C 
HETATM   74  C           0       3.634   4.344   8.743  0.00  0.00     0.009 C 
HETATM   75  C           0       2.614   5.219   6.600  0.00  0.00     0.009 C 
ENDBRANCH  72  73
ENDBRANCH  52  72
ENDBRANCH  50  52
ENDBRANCH  41  48
ENDBRANCH   1  41
TORSDOF 28
ENDMDL
MODEL 2
REMARK VINA RESULT:      -5.3      1.850      2.772
REMARK  28 active torsions:
REMARK  status: ('A' for Active; 'I' for Inactive)
REMARK       I    between atoms: C_1  and  N_3 
REMARK    1  A    between atoms: C_1  and  C_41 
REMARK    2  A    between atoms: N_3  and  C_5 
REMARK    3  A    between atoms: C_5  and  C_6 
REMARK    4  A    between atoms: C_5  and  C_18 
REMARK       I    between atoms: C_18  and  N_19 
REMARK    5  A    between atoms: C_20  and  C_25 
REMARK       I    between atoms: C_25  and  N_26 
REMARK    6  A    between atoms: N_26  and  C_29 
REMARK    7  A    between atoms: C_29  and  C_30 
REMARK    8  A    between atoms: C_29  and  C_38 
REMARK       I    between atoms: C_30  and  N_31 
REMARK    9  A    between atoms: N_31  and  C_34 
REMARK   10  A    between atoms: C_34  and  C_35 
REMARK   11  A    between atoms: C_38  and  O_39 
REMARK   12  A    between atoms: C_6  and  C_7 
REMARK   13  A    between atoms: C_7  and  C_8 
REMARK   14  A    between atoms: C_8  and  N_9 
REMARK       I    between atoms: N_9  and  C_10 
REMARK       I    between atoms: C_10  and  N_12 
REMARK   15  A    between atoms: C_41  and  C_42 
REMARK   16  A    between atoms: C_41  and  N_48 
REMARK       I    between atoms: N_48  and  C_50 
REMARK   17  A    between atoms: C_50  and  C_52 
REMARK   18  A    between atoms: C_52  and  N_53 
REMARK   19  A    between atoms: C_52  and  C_72 
REMARK       I    between atoms: N_53  and  C_55 
REMARK   20  A    between atoms: C_55  and  C_57 
REMARK   21  A    between atoms: C_57  and  N_58 
REMARK       I    between atoms: N_58  and  C_60 
REMARK   22  A    between atoms: C_60  and  C_62 
REMARK   23  A    between atoms: C_62  and  N_63 
REMARK   24  A    between atoms: C_62  and  C_67 
REMARK   25  A    between atoms: C_67  and  C_68 
REMARK   26  A    between atoms: C_68  and  C_69 
REMARK   27  A    between atoms: C_72  and  C_73 
REMARK   28  A    between atoms: C_42  and  C_43 
REMARK       I    between atoms: C_43  and  N_44 
ROOT
HETATM    1  C           0      -3.155   7.515   7.484  0.00  0.00     0.241 C 
HETATM    2  O           0      -3.625   7.247   8.595  0.00  0.00    -0.271 OA
HETATM    3  N           0      -3.293   6.675   6.430  0.00  0.00    -0.346 N 
HETATM    4  H           0      -2.863   6.914   5.545  0.00  0.00     0.163 HD
ENDROOT
BRANCH   3   5
HETATM    5  C           0      -4.170   5.510   6.527  0.00  0.00     0.176 C 
BRANCH   5   6
HETATM    6  C           0      -5.420   5.666   5.644  0.00  0.00     0.036 C 
BRANCH   6   7
HETATM    7  C           0      -6.368   4.475   5.819  0.00  0.00     0.023 C 
BRANCH   7   8
HETATM    8  C           0      -7.718   4.641   5.121  0.00  0.00     0.138 C 
BRANCH   8   9
HETATM    9  N           0      -8.089   3.341   4.569  0.00  0.00    -0.227 N 
HETATM   10  C           0      -9.057   3.094   3.691  0.00  0.00     0.665 C 
HETATM   11  N           0      -9.870   4.063   3.248  0.00  0.00    -0.235 N 
HETATM   12  N           0      -9.190   1.831   3.248  0.00  0.00    -0.235 N 
HETATM   13  H           0     -10.503   3.892   2.481  0.00  0.00     0.174 HD
HETATM   14  H           0      -9.723   5.023   3.517  0.00  0.00     0.174 HD
HETATM   15  H           0     -10.038   1.542   2.784  0.00  0.00     0.174 HD
HETATM   16  H           0      -8.624   1.129   3.730  0.00  0.00     0.174 HD
HETATM   17  H           0      -7.583   2.495   4.883  0.00  0.00     0.177 HD
ENDBRANCH   8   9
ENDBRANCH   7   8
ENDBRANCH   6   7
ENDBRANCH   5   6
BRANCH   5  18
HETATM   18  C           0      -3.475   4.142   6.355  0.00  0.00     0.243 C 
HETATM   19  N           0      -3.197   3.368   7.439  0.00  0.00    -0.337 N 
HETATM   20  C           0      -2.647   2.016   7.238  0.00  0.00     0.179 C 
HETATM   21  C           0      -2.948   3.826   8.823  0.00  0.00     0.127 C 
HETATM   22  C           0      -1.801   1.738   8.512  0.00  0.00     0.037 C 
HETATM   23  C           0      -1.636   3.116   9.172  0.00  0.00     0.022 C 
HETATM   24  O           0      -3.251   3.761   5.202  0.00  0.00    -0.271 OA
BRANCH  20  25
HETATM   25  C           0      -3.699   0.912   7.039  0.00  0.00     0.241 C 
HETATM   26  N           0      -4.702   1.142   6.154  0.00  0.00    -0.344 N 
HETATM   27  H           0      -4.732   2.020   5.642  0.00  0.00     0.163 HD
HETATM   28  O           0      -3.602  -0.128   7.696  0.00  0.00    -0.271 OA
BRANCH  26  29
HETATM   29  C           0      -5.841   0.244   6.033  0.00  0.00     0.200 C 
BRANCH  29  30
HETATM   30  C           0      -6.364   0.013   4.601  0.00  0.00     0.242 C 
HETATM   31  N           0      -6.791  -1.215   4.278  0.00  0.00    -0.354 N 
HETATM   32  H           0      -6.831  -1.981   4.946  0.00  0.00     0.162 HD
HETATM   33  O           0      -6.365   0.966   3.807  0.00  0.00    -0.271 OA
BRANCH  31  34
HETATM   34  C           0      -7.351  -1.553   2.982  0.00  0.00     0.203 C 
BRANCH  34  35
HETATM   35  C           0      -8.821  -2.037   3.137  0.00  0.00     0.307 C 
HETATM   36  O           0      -9.718  -1.182   2.906  0.00  0.00    -0.186 OA
HETATM   37  O           0      -8.954  -3.238   3.477  0.00  0.00    -0.186 OA
ENDBRANCH  34  35
ENDBRANCH  31  34
ENDBRANCH  29  30
BRANCH  29  38
HETATM   38  C           0      -7.007   0.701   6.936  0.00  0.00     0.199 C 
BRANCH  38  39
HETATM   39  O           0      -8.231   0.815   6.236  0.00  0.00    -0.398 OA
HETATM   40  H           0      -8.413   1.750   6.039  0.00  0.00     0.209 HD
ENDBRANCH  38  39
ENDBRANCH  29  38
ENDBRANCH  26  29
ENDBRANCH  20  25
ENDBRANCH   5  18
ENDBRANCH   3   5
BRANCH   1  41
HETATM   41  C           0      -2.424   8.849   7.226  0.00  0.00     0.185 C 
BRANCH  41  42
HETATM   42  C           0      -3.122   9.706   6.153  0.00  0.00     0.137 C 
BRANCH  42  43
HETATM   43  C           0      -4.395  10.410   6.622  0.00  0.00     0.217 C 
HETATM   44  N           0      -4.287  10.994   7.835  0.00  0.00    -0.370 N 
HETATM   45  H           0      -5.128  11.383   8.238  0.00  0.00     0.159 HD
HETATM   46  H           0      -3.446  10.910   8.419  0.00  0.00     0.159 HD
HETATM   47  O           0      -5.431  10.401   5.952  0.00  0.00    -0.274 OA
ENDBRANCH  42  43
ENDBRANCH  41  42
BRANCH  41  48
HETATM   48  N           0      -1.047   8.646   6.790  0.00  0.00    -0.346 N 
HETATM   49  H           0      -0.834   8.765   5.808  0.00  0.00     0.163 HD
HETATM   50  C           0      -0.060   8.216   7.602  0.00  0.00     0.241 C 
HETATM   51  O           0      -0.237   7.929   8.793  0.00  0.00    -0.271 OA
BRANCH  50  52
HETATM   52  C           0       1.348   8.120   6.984  0.00  0.00     0.177 C 
BRANCH  52  53
HETATM   53  N           0       2.171   9.285   7.290  0.00  0.00    -0.346 N 
HETATM   54  H           0       2.482   9.426   8.243  0.00  0.00     0.163 HD
HETATM   55  C           0       2.634  10.114   6.316  0.00  0.00     0.236 C 
HETATM   56  O           0       2.398   9.943   5.123  0.00  0.00    -0.272 OA
BRANCH  55  57
HETATM   57  C           0       3.510  11.288   6.774  0.00  0.00     0.225 C 
BRANCH  57  58
HETATM   58  N           0       2.955  12.051   7.890  0.00  0.00    -0.351 N 
HETATM   59  H           0       2.950  11.606   8.797  0.00  0.00     0.163 HD
HETATM   60  C           0       2.749  13.382   7.750  0.00  0.00     0.248 C 
HETATM   61  O           0       2.934  13.953   6.669  0.00  0.00    -0.271 OA
BRANCH  60  62
HETATM   62  C           0       2.245  14.221   8.929  0.00  0.00     0.275 C 
BRANCH  62  63
HETATM   63  N           0       2.371  15.717   8.693  0.00  0.00    -0.066 N 
HETATM   64  H           0       2.750  16.213   9.507  0.00  0.00     0.275 HD
HETATM   65  H           0       2.942  15.960   7.878  0.00  0.00     0.275 HD
HETATM   66  H           0       1.442  16.113   8.515  0.00  0.00     0.275 HD
ENDBRANCH  62  63
BRANCH  62  67
HETATM   67  C           0       0.808  13.907   9.376  0.00  0.00     0.053 C 
BRANCH  67  68
HETATM   68  C           0      -0.180  13.688   8.224  0.00  0.00     0.115 C 
BRANCH  68  69
HETATM   69  C           0      -0.697  12.251   8.015  0.00  0.00     0.172 C 
HETATM   70  O           0      -1.560  11.794   8.810  0.00  0.00    -0.648 OA
HETATM   71  O           0      -0.182  11.610   7.042  0.00  0.00    -0.648 OA
ENDBRANCH  68  69
ENDBRANCH  67  68
ENDBRANCH  62  67
ENDBRANCH  60  62
ENDBRANCH  57  58
ENDBRANCH  55  57
ENDBRANCH  52  53
BRANCH  52  72
HETATM   72  C           0       2.089   6.844   7.445  0.00  0.00     0.038 C 
BRANCH  72  73
HETATM   73  C           0       1.864   5.566   6.614  0.00  0.00    -0.020 C 
HETATM   74  C           0       0.499   4.918   6.887  0.00  0.00     0.009 C 
HETATM   75  C           0       2.022   5.901   5.122  0.00  0.00     0.009 C 
ENDBRANCH  72  73
ENDBRANCH  52  72
ENDBRANCH  50  52
ENDBRANCH  41  48
ENDBRANCH   1  41
TORSDOF 28
ENDMDL
MODEL 3
REMARK VINA RESULT:      -5.3     13.316     19.231
REMARK  28 active torsions:
REMARK  status: ('A' for Active; 'I' for Inactive)
REMARK       I    between atoms: C_1  and  N_3 
REMARK    1  A    between atoms: C_1  and  C_41 
REMARK    2  A    between atoms: N_3  and  C_5 
REMARK    3  A    between atoms: C_5  and  C_6 
REMARK    4  A    between atoms: C_5  and  C_18 
REMARK       I    between atoms: C_18  and  N_19 
REMARK    5  A    between atoms: C_20  and  C_25 
REMARK       I    between atoms: C_25  and  N_26 
REMARK    6  A    between atoms: N_26  and  C_29 
REMARK    7  A    between atoms: C_29  and  C_30 
REMARK    8  A    between atoms: C_29  and  C_38 
REMARK       I    between atoms: C_30  and  N_31 
REMARK    9  A    between atoms: N_31  and  C_34 
REMARK   10  A    between atoms: C_34  and  C_35 
REMARK   11  A    between atoms: C_38  and  O_39 
REMARK   12  A    between atoms: C_6  and  C_7 
REMARK   13  A    between atoms: C_7  and  C_8 
REMARK   14  A    between atoms: C_8  and  N_9 
REMARK       I    between atoms: N_9  and  C_10 
REMARK       I    between atoms: C_10  and  N_12 
REMARK   15  A    between atoms: C_41  and  C_42 
REMARK   16  A    between atoms: C_41  and  N_48 
REMARK       I    between atoms: N_48  and  C_50 
REMARK   17  A    between atoms: C_50  and  C_52 
REMARK   18  A    between atoms: C_52  and  N_53 
REMARK   19  A    between atoms: C_52  and  C_72 
REMARK       I    between atoms: N_53  and  C_55 
REMARK   20  A    between atoms: C_55  and  C_57 
REMARK   21  A    between atoms: C_57  and  N_58 
REMARK       I    between atoms: N_58  and  C_60 
REMARK   22  A    between atoms: C_60  and  C_62 
REMARK   23  A    between atoms: C_62  and  N_63 
REMARK   24  A    between atoms: C_62  and  C_67 
REMARK   25  A    between atoms: C_67  and  C_68 
REMARK   26  A    between atoms: C_68  and  C_69 
REMARK   27  A    between atoms: C_72  and  C_73 
REMARK   28  A    between atoms: C_42  and  C_43 
REMARK       I    between atoms: C_43  and  N_44 
ROOT
HETATM    1  C           0      -5.456  -9.333   7.744  0.00  0.00     0.241 C 
HETATM    2  O           0      -5.208  -9.369   6.534  0.00  0.00    -0.271 OA
HETATM    3  N           0      -5.674 -10.460   8.461  0.00  0.00    -0.346 N 
HETATM    4  H           0      -5.909 -10.387   9.444  0.00  0.00     0.163 HD
ENDROOT
BRANCH   3   5
HETATM    5  C           0      -5.433 -11.772   7.863  0.00  0.00     0.176 C 
BRANCH   5   6
HETATM    6  C           0      -4.277 -12.509   8.558  0.00  0.00     0.036 C 
BRANCH   6   7
HETATM    7  C           0      -3.899 -13.783   7.792  0.00  0.00     0.023 C 
BRANCH   7   8
HETATM    8  C           0      -3.435 -14.935   8.683  0.00  0.00     0.138 C 
BRANCH   8   9
HETATM    9  N           0      -2.260 -15.530   8.053  0.00  0.00    -0.227 N 
HETATM   10  C           0      -0.987 -15.236   8.302  0.00  0.00     0.665 C 
HETATM   11  N           0      -0.642 -14.269   9.163  0.00  0.00    -0.235 N 
HETATM   12  N           0      -0.045 -15.955   7.664  0.00  0.00    -0.235 N 
HETATM   13  H           0       0.319 -14.154   9.449  0.00  0.00     0.174 HD
HETATM   14  H           0      -1.342 -13.783   9.700  0.00  0.00     0.174 HD
HETATM   15  H           0       0.907 -15.624   7.625  0.00  0.00     0.174 HD
HETATM   16  H           0      -0.385 -16.579   6.929  0.00  0.00     0.174 HD
HETATM   17  H           0      -2.388 -16.244   7.316  0.00  0.00     0.177 HD
ENDBRANCH   8   9
ENDBRANCH   7   8
ENDBRANCH   6   7
ENDBRANCH   5   6
BRANCH   5  18
HETATM   18  C           0      -6.688 -12.654   7.676  0.00  0.00     0.243 C 
HETATM   19  N           0      -7.233 -12.824   6.441  0.00  0.00    -0.337 N 
HETATM   20  C           0      -8.352 -13.767   6.271  0.00  0.00     0.179 C 
HETATM   21  C           0      -7.172 -11.885   5.300  0.00  0.00     0.127 C 
HETATM   22  C           0      -9.164 -13.207   5.069  0.00  0.00     0.037 C 
HETATM   23  C           0      -8.643 -11.773   4.888  0.00  0.00     0.022 C 
HETATM   24  O           0      -7.121 -13.241   8.671  0.00  0.00    -0.271 OA
BRANCH  20  25
HETATM   25  C           0      -7.937 -15.224   6.007  0.00  0.00     0.241 C 
HETATM   26  N           0      -7.612 -15.995   7.077  0.00  0.00    -0.344 N 
HETATM   27  H           0      -7.658 -15.603   8.014  0.00  0.00     0.163 HD
HETATM   28  O           0      -7.901 -15.632   4.844  0.00  0.00    -0.271 OA
BRANCH  26  29
HETATM   29  C           0      -7.032 -17.321   6.920  0.00  0.00     0.200 C 
BRANCH  29  30
HETATM   30  C           0      -8.036 -18.484   6.806  0.00  0.00     0.242 C 
HETATM   31  N           0      -8.726 -18.610   5.664  0.00  0.00    -0.354 N 
HETATM   32  H           0      -8.578 -18.006   4.858  0.00  0.00     0.162 HD
HETATM   33  O           0      -8.171 -19.251   7.772  0.00  0.00    -0.271 OA
BRANCH  31  34
HETATM   34  C           0      -9.665 -19.687   5.410  0.00  0.00     0.203 C 
BRANCH  34  35
HETATM   35  C           0      -8.956 -20.863   4.680  0.00  0.00     0.307 C 
HETATM   36  O           0      -8.945 -20.812   3.420  0.00  0.00    -0.186 OA
HETATM   37  O           0      -8.467 -21.740   5.432  0.00  0.00    -0.186 OA
ENDBRANCH  34  35
ENDBRANCH  31  34
ENDBRANCH  29  30
BRANCH  29  38
HETATM   38  C           0      -6.025 -17.622   8.051  0.00  0.00     0.199 C 
BRANCH  38  39
HETATM   39  O           0      -4.710 -17.832   7.573  0.00  0.00    -0.398 OA
HETATM   40  H           0      -4.290 -18.555   8.070  0.00  0.00     0.209 HD
ENDBRANCH  38  39
ENDBRANCH  29  38
ENDBRANCH  26  29
ENDBRANCH  20  25
ENDBRANCH   5  18
ENDBRANCH   3   5
BRANCH   1  41
HETATM   41  C           0      -5.482  -7.996   8.515  0.00  0.00     0.185 C 
BRANCH  41  42
HETATM   42  C           0      -4.662  -8.051   9.819  0.00  0.00     0.137 C 
BRANCH  42  43
HETATM   43  C           0      -3.148  -8.130   9.622  0.00  0.00     0.217 C 
HETATM   44  N           0      -2.657  -7.223   8.751  0.00  0.00    -0.370 N 
HETATM   45  H           0      -1.680  -7.298   8.505  0.00  0.00     0.159 HD
HETATM   46  H           0      -3.259  -6.585   8.215  0.00  0.00     0.159 HD
HETATM   47  O           0      -2.459  -8.980  10.192  0.00  0.00    -0.274 OA
ENDBRANCH  42  43
ENDBRANCH  41  42
BRANCH  41  48
HETATM   48  N           0      -6.837  -7.594   8.872  0.00  0.00    -0.346 N 
HETATM   49  H           0      -7.230  -7.949   9.735  0.00  0.00     0.163 HD
HETATM   50  C           0      -7.632  -6.852   8.075  0.00  0.00     0.241 C 
HETATM   51  O           0      -7.293  -6.464   6.950  0.00  0.00    -0.271 OA
BRANCH  50  52
HETATM   52  C           0      -9.012  -6.469   8.643  0.00  0.00     0.177 C 
BRANCH  52  53
HETATM   53  N           0      -9.601  -5.327   7.952  0.00  0.00    -0.346 N 
HETATM   54  H           0     -10.329  -5.492   7.268  0.00  0.00     0.163 HD
HETATM   55  C           0      -9.291  -4.046   8.287  0.00  0.00     0.236 C 
HETATM   56  O           0      -8.504  -3.760   9.185  0.00  0.00    -0.272 OA
BRANCH  55  57
HETATM   57  C           0     -10.002  -2.939   7.496  0.00  0.00     0.225 C 
BRANCH  57  58
HETATM   58  N           0      -9.321  -2.551   6.262  0.00  0.00    -0.351 N 
HETATM   59  H           0      -8.503  -1.966   6.350  0.00  0.00     0.163 HD
HETATM   60  C           0      -9.611  -3.201   5.110  0.00  0.00     0.248 C 
HETATM   61  O           0     -10.503  -4.055   5.057  0.00  0.00    -0.271 OA
BRANCH  60  62
HETATM   62  C           0      -8.854  -2.872   3.818  0.00  0.00     0.275 C 
BRANCH  62  63
HETATM   63  N           0      -8.502  -1.398   3.693  0.00  0.00    -0.066 N 
HETATM   64  H           0      -8.011  -1.040   4.519  0.00  0.00     0.275 HD
HETATM   65  H           0      -7.939  -1.176   2.867  0.00  0.00     0.275 HD
HETATM   66  H           0      -9.364  -0.849   3.604  0.00  0.00     0.275 HD
ENDBRANCH  62  63
BRANCH  62  67
HETATM   67  C           0      -7.585  -3.707   3.583  0.00  0.00     0.053 C 
BRANCH  67  68
HETATM   68  C           0      -7.851  -5.174   3.224  0.00  0.00     0.115 C 
BRANCH  68  69
HETATM   69  C           0      -6.644  -6.133   3.280  0.00  0.00     0.172 C 
HETATM   70  O           0      -5.482  -5.649   3.264  0.00  0.00    -0.648 OA
HETATM   71  O           0      -6.922  -7.375   3.319  0.00  0.00    -0.648 OA
ENDBRANCH  68  69
ENDBRANCH  67  68
ENDBRANCH  62  67
ENDBRANCH  60  62
ENDBRANCH  57  58
ENDBRANCH  55  57
ENDBRANCH  52  53
BRANCH  52  72
HETATM   72  C           0     -10.002  -7.656   8.590  0.00  0.00     0.038 C 
BRANCH  72  73
HETATM   73  C           0      -9.805  -8.679   7.455  0.00  0.00    -0.020 C 
HETATM   74  C           0      -9.463 -10.082   7.979  0.00  0.00     0.009 C 
HETATM   75  C           0     -11.069  -8.713   6.582  0.00  0.00     0.009 C 
ENDBRANCH  72  73
ENDBRANCH  52  72
ENDBRANCH  50  52
ENDBRANCH  41  48
ENDBRANCH   1  41
TORSDOF 28
ENDMDL
MODEL 4
REMARK VINA RESULT:      -5.2      3.169      5.522
REMARK  28 active torsions:
REMARK  status: ('A' for Active; 'I' for Inactive)
REMARK       I    between atoms: C_1  and  N_3 
REMARK    1  A    between atoms: C_1  and  C_41 
REMARK    2  A    between atoms: N_3  and  C_5 
REMARK    3  A    between atoms: C_5  and  C_6 
REMARK    4  A    between atoms: C_5  and  C_18 
REMARK       I    between atoms: C_18  and  N_19 
REMARK    5  A    between atoms: C_20  and  C_25 
REMARK       I    between atoms: C_25  and  N_26 
REMARK    6  A    between atoms: N_26  and  C_29 
REMARK    7  A    between atoms: C_29  and  C_30 
REMARK    8  A    between atoms: C_29  and  C_38 
REMARK       I    between atoms: C_30  and  N_31 
REMARK    9  A    between atoms: N_31  and  C_34 
REMARK   10  A    between atoms: C_34  and  C_35 
REMARK   11  A    between atoms: C_38  and  O_39 
REMARK   12  A    between atoms: C_6  and  C_7 
REMARK   13  A    between atoms: C_7  and  C_8 
REMARK   14  A    between atoms: C_8  and  N_9 
REMARK       I    between atoms: N_9  and  C_10 
REMARK       I    between atoms: C_10  and  N_12 
REMARK   15  A    between atoms: C_41  and  C_42 
REMARK   16  A    between atoms: C_41  and  N_48 
REMARK       I    between atoms: N_48  and  C_50 
REMARK   17  A    between atoms: C_50  and  C_52 
REMARK   18  A    between atoms: C_52  and  N_53 
REMARK   19  A    between atoms: C_52  and  C_72 
REMARK       I    between atoms: N_53  and  C_55 
REMARK   20  A    between atoms: C_55  and  C_57 
REMARK   21  A    between atoms: C_57  and  N_58 
REMARK       I    between atoms: N_58  and  C_60 
REMARK   22  A    between atoms: C_60  and  C_62 
REMARK   23  A    between atoms: C_62  and  N_63 
REMARK   24  A    between atoms: C_62  and  C_67 
REMARK   25  A    between atoms: C_67  and  C_68 
REMARK   26  A    between atoms: C_68  and  C_69 
REMARK   27  A    between atoms: C_72  and  C_73 
REMARK   28  A    between atoms: C_42  and  C_43 
REMARK       I    between atoms: C_43  and  N_44 
ROOT
HETATM    1  C           0      -0.258   5.255   6.758  0.00  0.00     0.241 C 
HETATM    2  O           0      -0.117   4.326   7.562  0.00  0.00    -0.271 OA
HETATM    3  N           0      -1.484   5.680   6.369  0.00  0.00    -0.346 N 
HETATM    4  H           0      -1.558   6.420   5.682  0.00  0.00     0.163 HD
ENDROOT
BRANCH   3   5
HETATM    5  C           0      -2.684   5.177   7.035  0.00  0.00     0.176 C 
BRANCH   5   6
HETATM    6  C           0      -3.653   6.316   7.392  0.00  0.00     0.036 C 
BRANCH   6   7
HETATM    7  C           0      -3.230   7.628   6.722  0.00  0.00     0.023 C 
BRANCH   7   8
HETATM    8  C           0      -4.308   8.258   5.841  0.00  0.00     0.138 C 
BRANCH   8   9
HETATM    9  N           0      -3.921   8.036   4.450  0.00  0.00    -0.227 N 
HETATM   10  C           0      -4.456   7.160   3.604  0.00  0.00     0.665 C 
HETATM   11  N           0      -5.418   6.308   3.986  0.00  0.00    -0.235 N 
HETATM   12  N           0      -4.006   7.162   2.336  0.00  0.00    -0.235 N 
HETATM   13  H           0      -5.912   5.751   3.305  0.00  0.00     0.174 HD
HETATM   14  H           0      -5.812   6.356   4.912  0.00  0.00     0.174 HD
HETATM   15  H           0      -4.192   6.378   1.730  0.00  0.00     0.174 HD
HETATM   16  H           0      -3.184   7.745   2.158  0.00  0.00     0.174 HD
HETATM   17  H           0      -3.140   8.582   4.048  0.00  0.00     0.177 HD
ENDBRANCH   8   9
ENDBRANCH   7   8
ENDBRANCH   6   7
ENDBRANCH   5   6
BRANCH   5  18
HETATM   18  C           0      -3.379   3.987   6.337  0.00  0.00     0.243 C 
HETATM   19  N           0      -3.780   2.904   7.056  0.00  0.00    -0.337 N 
HETATM   20  C           0      -4.550   1.840   6.388  0.00  0.00     0.179 C 
HETATM   21  C           0      -3.195   2.403   8.318  0.00  0.00     0.127 C 
HETATM   22  C           0      -4.206   0.546   7.178  0.00  0.00     0.037 C 
HETATM   23  C           0      -2.968   0.920   8.008  0.00  0.00     0.022 C 
HETATM   24  O           0      -3.611   4.096   5.129  0.00  0.00    -0.271 OA
BRANCH  20  25
HETATM   25  C           0      -6.071   2.063   6.357  0.00  0.00     0.241 C 
HETATM   26  N           0      -6.728   1.797   5.200  0.00  0.00    -0.344 N 
HETATM   27  H           0      -6.213   1.451   4.394  0.00  0.00     0.163 HD
HETATM   28  O           0      -6.632   2.487   7.371  0.00  0.00    -0.271 OA
BRANCH  26  29
HETATM   29  C           0      -8.128   2.149   5.012  0.00  0.00     0.200 C 
BRANCH  29  30
HETATM   30  C           0      -9.058   0.998   4.578  0.00  0.00     0.242 C 
HETATM   31  N           0      -8.502  -0.074   3.998  0.00  0.00    -0.354 N 
HETATM   32  H           0      -7.498  -0.181   3.879  0.00  0.00     0.162 HD
HETATM   33  O           0     -10.277   1.111   4.777  0.00  0.00    -0.271 OA
BRANCH  31  34
HETATM   34  C           0      -9.257  -1.244   3.588  0.00  0.00     0.203 C 
BRANCH  34  35
HETATM   35  C           0      -8.363  -2.199   2.747  0.00  0.00     0.307 C 
HETATM   36  O           0      -7.281  -2.564   3.281  0.00  0.00    -0.186 OA
HETATM   37  O           0      -8.823  -2.505   1.620  0.00  0.00    -0.186 OA
ENDBRANCH  34  35
ENDBRANCH  31  34
ENDBRANCH  29  30
BRANCH  29  38
HETATM   38  C           0      -8.276   3.326   4.025  0.00  0.00     0.199 C 
BRANCH  38  39
HETATM   39  O           0      -9.001   2.978   2.860  0.00  0.00    -0.398 OA
HETATM   40  H           0      -8.401   2.948   2.095  0.00  0.00     0.209 HD
ENDBRANCH  38  39
ENDBRANCH  29  38
ENDBRANCH  26  29
ENDBRANCH  20  25
ENDBRANCH   5  18
ENDBRANCH   3   5
BRANCH   1  41
HETATM   41  C           0       0.959   6.014   6.192  0.00  0.00     0.185 C 
BRANCH  41  42
HETATM   42  C           0       2.267   5.210   6.319  0.00  0.00     0.137 C 
BRANCH  42  43
HETATM   43  C           0       3.175   5.638   7.472  0.00  0.00     0.217 C 
HETATM   44  N           0       2.798   5.159   8.677  0.00  0.00    -0.370 N 
HETATM   45  H           0       3.300   5.495   9.487  0.00  0.00     0.159 HD
HETATM   46  H           0       1.937   4.615   8.814  0.00  0.00     0.159 HD
HETATM   47  O           0       4.140   6.386   7.301  0.00  0.00    -0.274 OA
ENDBRANCH  42  43
ENDBRANCH  41  42
BRANCH  41  48
HETATM   48  N           0       1.170   7.293   6.861  0.00  0.00    -0.346 N 
HETATM   49  H           0       0.880   7.381   7.826  0.00  0.00     0.163 HD
HETATM   50  C           0       1.642   8.394   6.240  0.00  0.00     0.241 C 
HETATM   51  O           0       1.917   8.428   5.035  0.00  0.00    -0.271 OA
BRANCH  50  52
HETATM   52  C           0       1.860   9.639   7.120  0.00  0.00     0.177 C 
BRANCH  52  53
HETATM   53  N           0       3.094   9.563   7.896  0.00  0.00    -0.346 N 
HETATM   54  H           0       3.905  10.075   7.573  0.00  0.00     0.163 HD
HETATM   55  C           0       3.149   8.931   9.099  0.00  0.00     0.236 C 
HETATM   56  O           0       2.177   8.385   9.614  0.00  0.00    -0.272 OA
BRANCH  55  57
HETATM   57  C           0       4.504   8.948   9.820  0.00  0.00     0.225 C 
BRANCH  57  58
HETATM   58  N           0       5.319   7.756   9.594  0.00  0.00    -0.351 N 
HETATM   59  H           0       4.879   6.860   9.744  0.00  0.00     0.163 HD
HETATM   60  C           0       6.494   7.870   8.930  0.00  0.00     0.248 C 
HETATM   61  O           0       6.938   8.971   8.589  0.00  0.00    -0.271 OA
BRANCH  60  62
HETATM   62  C           0       7.330   6.626   8.607  0.00  0.00     0.275 C 
BRANCH  62  63
HETATM   63  N           0       7.072   6.081   7.212  0.00  0.00    -0.066 N 
HETATM   64  H           0       6.147   6.340   6.853  0.00  0.00     0.275 HD
HETATM   65  H           0       7.772   6.366   6.521  0.00  0.00     0.275 HD
HETATM   66  H           0       7.100   5.056   7.236  0.00  0.00     0.275 HD
ENDBRANCH  62  63
BRANCH  62  67
HETATM   67  C           0       8.845   6.799   8.802  0.00  0.00     0.053 C 
BRANCH  67  68
HETATM   68  C           0       9.703   6.122   7.726  0.00  0.00     0.115 C 
BRANCH  68  69
HETATM   69  C           0      11.054   6.787   7.396  0.00  0.00     0.172 C 
HETATM   70  O           0      12.081   6.064   7.302  0.00  0.00    -0.648 OA
HETATM   71  O           0      11.033   8.053   7.260  0.00  0.00    -0.648 OA
ENDBRANCH  68  69
ENDBRANCH  67  68
ENDBRANCH  62  67
ENDBRANCH  60  62
ENDBRANCH  57  58
ENDBRANCH  55  57
ENDBRANCH  52  53
BRANCH  52  72
HETATM   72  C           0       1.871  10.937   6.281  0.00  0.00     0.038 C 
BRANCH  72  73
HETATM   73  C           0       0.756  11.962   6.564  0.00  0.00    -0.020 C 
HETATM   74  C           0      -0.222  11.484   7.648  0.00  0.00     0.009 C 
HETATM   75  C           0       1.393  13.305   6.955  0.00  0.00     0.009 C 
ENDBRANCH  72  73
ENDBRANCH  52  72
ENDBRANCH  50  52
ENDBRANCH  41  48
ENDBRANCH   1  41
TORSDOF 28
ENDMDL
MODEL 5
REMARK VINA RESULT:      -5.1      2.651      6.041
REMARK  28 active torsions:
REMARK  status: ('A' for Active; 'I' for Inactive)
REMARK       I    between atoms: C_1  and  N_3 
REMARK    1  A    between atoms: C_1  and  C_41 
REMARK    2  A    between atoms: N_3  and  C_5 
REMARK    3  A    between atoms: C_5  and  C_6 
REMARK    4  A    between atoms: C_5  and  C_18 
REMARK       I    between atoms: C_18  and  N_19 
REMARK    5  A    between atoms: C_20  and  C_25 
REMARK       I    between atoms: C_25  and  N_26 
REMARK    6  A    between atoms: N_26  and  C_29 
REMARK    7  A    between atoms: C_29  and  C_30 
REMARK    8  A    between atoms: C_29  and  C_38 
REMARK       I    between atoms: C_30  and  N_31 
REMARK    9  A    between atoms: N_31  and  C_34 
REMARK   10  A    between atoms: C_34  and  C_35 
REMARK   11  A    between atoms: C_38  and  O_39 
REMARK   12  A    between atoms: C_6  and  C_7 
REMARK   13  A    between atoms: C_7  and  C_8 
REMARK   14  A    between atoms: C_8  and  N_9 
REMARK       I    between atoms: N_9  and  C_10 
REMARK       I    between atoms: C_10  and  N_12 
REMARK   15  A    between atoms: C_41  and  C_42 
REMARK   16  A    between atoms: C_41  and  N_48 
REMARK       I    between atoms: N_48  and  C_50 
REMARK   17  A    between atoms: C_50  and  C_52 
REMARK   18  A    between atoms: C_52  and  N_53 
REMARK   19  A    between atoms: C_52  and  C_72 
REMARK       I    between atoms: N_53  and  C_55 
REMARK   20  A    between atoms: C_55  and  C_57 
REMARK   21  A    between atoms: C_57  and  N_58 
REMARK       I    between atoms: N_58  and  C_60 
REMARK   22  A    between atoms: C_60  and  C_62 
REMARK   23  A    between atoms: C_62  and  N_63 
REMARK   24  A    between atoms: C_62  and  C_67 
REMARK   25  A    between atoms: C_67  and  C_68 
REMARK   26  A    between atoms: C_68  and  C_69 
REMARK   27  A    between atoms: C_72  and  C_73 
REMARK   28  A    between atoms: C_42  and  C_43 
REMARK       I    between atoms: C_43  and  N_44 
ROOT
HETATM    1  C           0      -4.592   4.156   6.224  0.00  0.00     0.241 C 
HETATM    2  O           0      -3.529   3.613   5.901  0.00  0.00    -0.271 OA
HETATM    3  N           0      -5.474   3.557   7.059  0.00  0.00    -0.346 N 
HETATM    4  H           0      -6.349   4.020   7.271  0.00  0.00     0.163 HD
ENDROOT
BRANCH   3   5
HETATM    5  C           0      -5.108   2.326   7.757  0.00  0.00     0.176 C 
BRANCH   5   6
HETATM    6  C           0      -4.763   2.592   9.232  0.00  0.00     0.036 C 
BRANCH   6   7
HETATM    7  C           0      -3.286   2.294   9.512  0.00  0.00     0.023 C 
BRANCH   7   8
HETATM    8  C           0      -2.436   3.537   9.776  0.00  0.00     0.138 C 
BRANCH   8   9
HETATM    9  N           0      -2.190   4.181   8.488  0.00  0.00    -0.227 N 
HETATM   10  C           0      -1.503   5.299   8.275  0.00  0.00     0.665 C 
HETATM   11  N           0      -0.990   6.015   9.284  0.00  0.00    -0.235 N 
HETATM   12  N           0      -1.327   5.689   6.998  0.00  0.00    -0.235 N 
HETATM   13  H           0      -0.354   6.778   9.103  0.00  0.00     0.174 HD
HETATM   14  H           0      -1.052   5.686  10.234  0.00  0.00     0.174 HD
HETATM   15  H           0      -1.036   6.632   6.791  0.00  0.00     0.174 HD
HETATM   16  H           0      -1.859   5.167   6.298  0.00  0.00     0.174 HD
HETATM   17  H           0      -2.593   3.767   7.630  0.00  0.00     0.177 HD
ENDBRANCH   8   9
ENDBRANCH   7   8
ENDBRANCH   6   7
ENDBRANCH   5   6
BRANCH   5  18
HETATM   18  C           0      -6.083   1.143   7.567  0.00  0.00     0.243 C 
HETATM   19  N           0      -7.417   1.365   7.422  0.00  0.00    -0.337 N 
HETATM   20  C           0      -8.308   0.232   7.119  0.00  0.00     0.179 C 
HETATM   21  C           0      -8.195   2.506   7.950  0.00  0.00     0.127 C 
HETATM   22  C           0      -9.680   0.631   7.729  0.00  0.00     0.037 C 
HETATM   23  C           0      -9.358   1.807   8.664  0.00  0.00     0.022 C 
HETATM   24  O           0      -5.592   0.013   7.485  0.00  0.00    -0.271 OA
BRANCH  20  25
HETATM   25  C           0      -8.459  -0.092   5.622  0.00  0.00     0.241 C 
HETATM   26  N           0      -7.661  -1.056   5.098  0.00  0.00    -0.344 N 
HETATM   27  H           0      -6.999  -1.544   5.695  0.00  0.00     0.163 HD
HETATM   28  O           0      -9.281   0.542   4.956  0.00  0.00    -0.271 OA
BRANCH  26  29
HETATM   29  C           0      -7.597  -1.305   3.665  0.00  0.00     0.200 C 
BRANCH  29  30
HETATM   30  C           0      -7.994  -2.723   3.211  0.00  0.00     0.242 C 
HETATM   31  N           0      -7.666  -3.752   4.004  0.00  0.00    -0.354 N 
HETATM   32  H           0      -7.216  -3.633   4.908  0.00  0.00     0.162 HD
HETATM   33  O           0      -8.594  -2.857   2.133  0.00  0.00    -0.271 OA
BRANCH  31  34
HETATM   34  C           0      -8.024  -5.129   3.718  0.00  0.00     0.203 C 
BRANCH  34  35
HETATM   35  C           0      -6.755  -5.956   3.363  0.00  0.00     0.307 C 
HETATM   36  O           0      -6.937  -7.178   3.113  0.00  0.00    -0.186 OA
HETATM   37  O           0      -5.679  -5.310   3.364  0.00  0.00    -0.186 OA
ENDBRANCH  34  35
ENDBRANCH  31  34
ENDBRANCH  29  30
BRANCH  29  38
HETATM   38  C           0      -6.200  -0.960   3.105  0.00  0.00     0.199 C 
BRANCH  38  39
HETATM   39  O           0      -5.161  -1.199   4.037  0.00  0.00    -0.398 OA
HETATM   40  H           0      -5.533  -1.560   4.860  0.00  0.00     0.209 HD
ENDBRANCH  38  39
ENDBRANCH  29  38
ENDBRANCH  26  29
ENDBRANCH  20  25
ENDBRANCH   5  18
ENDBRANCH   3   5
BRANCH   1  41
HETATM   41  C           0      -4.947   5.574   5.729  0.00  0.00     0.185 C 
BRANCH  41  42
HETATM   42  C           0      -4.177   5.964   4.453  0.00  0.00     0.137 C 
BRANCH  42  43
HETATM   43  C           0      -4.611   7.285   3.819  0.00  0.00     0.217 C 
HETATM   44  N           0      -4.083   7.510   2.597  0.00  0.00    -0.370 N 
HETATM   45  H           0      -4.253   8.414   2.178  0.00  0.00     0.159 HD
HETATM   46  H           0      -3.395   6.882   2.165  0.00  0.00     0.159 HD
HETATM   47  O           0      -5.351   8.079   4.406  0.00  0.00    -0.274 OA
ENDBRANCH  42  43
ENDBRANCH  41  42
BRANCH  41  48
HETATM   48  N           0      -4.666   6.593   6.733  0.00  0.00    -0.346 N 
HETATM   49  H           0      -3.738   6.994   6.761  0.00  0.00     0.163 HD
HETATM   50  C           0      -5.543   6.966   7.687  0.00  0.00     0.241 C 
HETATM   51  O           0      -6.664   6.457   7.815  0.00  0.00    -0.271 OA
BRANCH  50  52
HETATM   52  C           0      -5.098   8.104   8.625  0.00  0.00     0.177 C 
BRANCH  52  53
HETATM   53  N           0      -4.517   9.228   7.897  0.00  0.00    -0.346 N 
HETATM   54  H           0      -5.117   9.998   7.627  0.00  0.00     0.163 HD
HETATM   55  C           0      -3.177   9.331   7.684  0.00  0.00     0.236 C 
HETATM   56  O           0      -2.369   8.497   8.084  0.00  0.00    -0.272 OA
BRANCH  55  57
HETATM   57  C           0      -2.697  10.577   6.927  0.00  0.00     0.225 C 
BRANCH  57  58
HETATM   58  N           0      -1.328  10.980   7.241  0.00  0.00    -0.351 N 
HETATM   59  H           0      -1.119  11.192   8.207  0.00  0.00     0.163 HD
HETATM   60  C           0      -0.348  10.777   6.329  0.00  0.00     0.248 C 
HETATM   61  O           0      -0.598  10.342   5.200  0.00  0.00    -0.271 OA
BRANCH  60  62
HETATM   62  C           0       1.109  11.115   6.663  0.00  0.00     0.275 C 
BRANCH  62  63
HETATM   63  N           0       1.438  10.943   8.137  0.00  0.00    -0.066 N 
HETATM   64  H           0       1.187  10.013   8.490  0.00  0.00     0.275 HD
HETATM   65  H           0       2.422  11.114   8.364  0.00  0.00     0.275 HD
HETATM   66  H           0       0.899  11.620   8.687  0.00  0.00     0.275 HD
ENDBRANCH  62  63
BRANCH  62  67
HETATM   67  C           0       2.154  10.356   5.829  0.00  0.00     0.053 C 
BRANCH  67  68
HETATM   68  C           0       2.683   9.076   6.487  0.00  0.00     0.115 C 
BRANCH  68  69
HETATM   69  C           0       1.804   7.816   6.360  0.00  0.00     0.172 C 
HETATM   70  O           0       1.970   7.056   5.371  0.00  0.00    -0.648 OA
HETATM   71  O           0       0.940   7.646   7.280  0.00  0.00    -0.648 OA
ENDBRANCH  68  69
ENDBRANCH  67  68
ENDBRANCH  62  67
ENDBRANCH  60  62
ENDBRANCH  57  58
ENDBRANCH  55  57
ENDBRANCH  52  53
BRANCH  52  72
HETATM   72  C           0      -6.268   8.618   9.496  0.00  0.00     0.038 C 
BRANCH  72  73
HETATM   73  C           0      -6.858   9.994   9.131  0.00  0.00    -0.020 C 
HETATM   74  C           0      -8.316   9.902   8.659  0.00  0.00     0.009 C 
HETATM   75  C           0      -6.733  10.933  10.341  0.00  0.00     0.009 C 
ENDBRANCH  72  73
ENDBRANCH  52  72
ENDBRANCH  50  52
ENDBRANCH  41  48
ENDBRANCH   1  41
TORSDOF 28
ENDMDL
MODEL 6
REMARK VINA RESULT:      -5.1     10.707     18.272
REMARK  28 active torsions:
REMARK  status: ('A' for Active; 'I' for Inactive)
REMARK       I    between atoms: C_1  and  N_3 
REMARK    1  A    between atoms: C_1  and  C_41 
REMARK    2  A    between atoms: N_3  and  C_5 
REMARK    3  A    between atoms: C_5  and  C_6 
REMARK    4  A    between atoms: C_5  and  C_18 
REMARK       I    between atoms: C_18  and  N_19 
REMARK    5  A    between atoms: C_20  and  C_25 
REMARK       I    between atoms: C_25  and  N_26 
REMARK    6  A    between atoms: N_26  and  C_29 
REMARK    7  A    between atoms: C_29  and  C_30 
REMARK    8  A    between atoms: C_29  and  C_38 
REMARK       I    between atoms: C_30  and  N_31 
REMARK    9  A    between atoms: N_31  and  C_34 
REMARK   10  A    between atoms: C_34  and  C_35 
REMARK   11  A    between atoms: C_38  and  O_39 
REMARK   12  A    between atoms: C_6  and  C_7 
REMARK   13  A    between atoms: C_7  and  C_8 
REMARK   14  A    between atoms: C_8  and  N_9 
REMARK       I    between atoms: N_9  and  C_10 
REMARK       I    between atoms: C_10  and  N_12 
REMARK   15  A    between atoms: C_41  and  C_42 
REMARK   16  A    between atoms: C_41  and  N_48 
REMARK       I    between atoms: N_48  and  C_50 
REMARK   17  A    between atoms: C_50  and  C_52 
REMARK   18  A    between atoms: C_52  and  N_53 
REMARK   19  A    between atoms: C_52  and  C_72 
REMARK       I    between atoms: N_53  and  C_55 
REMARK   20  A    between atoms: C_55  and  C_57 
REMARK   21  A    between atoms: C_57  and  N_58 
REMARK       I    between atoms: N_58  and  C_60 
REMARK   22  A    between atoms: C_60  and  C_62 
REMARK   23  A    between atoms: C_62  and  N_63 
REMARK   24  A    between atoms: C_62  and  C_67 
REMARK   25  A    between atoms: C_67  and  C_68 
REMARK   26  A    between atoms: C_68  and  C_69 
REMARK   27  A    between atoms: C_72  and  C_73 
REMARK   28  A    between atoms: C_42  and  C_43 
REMARK       I    between atoms: C_43  and  N_44 
ROOT
HETATM    1  C           0      -6.281  -9.434   6.055  0.00  0.00     0.241 C 
HETATM    2  O           0      -6.507  -9.961   4.960  0.00  0.00    -0.271 OA
HETATM    3  N           0      -6.001 -10.171   7.156  0.00  0.00    -0.346 N 
HETATM    4  H           0      -5.856  -9.704   8.043  0.00  0.00     0.163 HD
ENDROOT
BRANCH   3   5
HETATM    5  C           0      -5.768 -11.610   7.041  0.00  0.00     0.176 C 
BRANCH   5   6
HETATM    6  C           0      -4.646 -12.080   7.980  0.00  0.00     0.036 C 
BRANCH   6   7
HETATM    7  C           0      -3.909 -13.289   7.392  0.00  0.00     0.023 C 
BRANCH   7   8
HETATM    8  C           0      -3.313 -14.230   8.439  0.00  0.00     0.138 C 
BRANCH   8   9
HETATM    9  N           0      -2.106 -14.818   7.864  0.00  0.00    -0.227 N 
HETATM   10  C           0      -1.087 -15.355   8.528  0.00  0.00     0.665 C 
HETATM   11  N           0      -1.041 -15.357   9.868  0.00  0.00    -0.235 N 
HETATM   12  N           0      -0.098 -15.914   7.807  0.00  0.00    -0.235 N 
HETATM   13  H           0      -0.338 -15.890  10.357  0.00  0.00     0.174 HD
HETATM   14  H           0      -1.815 -15.010  10.411  0.00  0.00     0.174 HD
HETATM   15  H           0       0.794 -16.111   8.235  0.00  0.00     0.174 HD
HETATM   16  H           0      -0.140 -15.755   6.798  0.00  0.00     0.174 HD
HETATM   17  H           0      -1.983 -14.817   6.837  0.00  0.00     0.177 HD
ENDBRANCH   8   9
ENDBRANCH   7   8
ENDBRANCH   6   7
ENDBRANCH   5   6
BRANCH   5  18
HETATM   18  C           0      -7.033 -12.493   7.119  0.00  0.00     0.243 C 
HETATM   19  N           0      -7.316 -13.383   6.130  0.00  0.00    -0.337 N 
HETATM   20  C           0      -8.459 -14.299   6.289  0.00  0.00     0.179 C 
HETATM   21  C           0      -6.920 -13.294   4.708  0.00  0.00     0.127 C 
HETATM   22  C           0      -8.935 -14.594   4.839  0.00  0.00     0.037 C 
HETATM   23  C           0      -8.251 -13.517   3.982  0.00  0.00     0.022 C 
HETATM   24  O           0      -7.724 -12.402   8.138  0.00  0.00    -0.271 OA
BRANCH  20  25
HETATM   25  C           0      -8.141 -15.610   7.027  0.00  0.00     0.241 C 
HETATM   26  N           0      -7.221 -16.442   6.476  0.00  0.00    -0.344 N 
HETATM   27  H           0      -6.761 -16.182   5.608  0.00  0.00     0.163 HD
HETATM   28  O           0      -8.739 -15.862   8.076  0.00  0.00    -0.271 OA
BRANCH  26  29
HETATM   29  C           0      -6.988 -17.782   6.996  0.00  0.00     0.200 C 
BRANCH  29  30
HETATM   30  C           0      -6.006 -17.881   8.180  0.00  0.00     0.242 C 
HETATM   31  N           0      -4.693 -17.863   7.912  0.00  0.00    -0.354 N 
HETATM   32  H           0      -4.322 -17.736   6.973  0.00  0.00     0.162 HD
HETATM   33  O           0      -6.466 -17.979   9.328  0.00  0.00    -0.271 OA
BRANCH  31  34
HETATM   34  C           0      -3.666 -17.900   8.937  0.00  0.00     0.203 C 
BRANCH  34  35
HETATM   35  C           0      -2.535 -18.889   8.535  0.00  0.00     0.307 C 
HETATM   36  O           0      -1.828 -18.557   7.546  0.00  0.00    -0.186 OA
HETATM   37  O           0      -2.450 -19.919   9.248  0.00  0.00    -0.186 OA
ENDBRANCH  34  35
ENDBRANCH  31  34
ENDBRANCH  29  30
BRANCH  29  38
HETATM   38  C           0      -6.535 -18.741   5.874  0.00  0.00     0.199 C 
BRANCH  38  39
HETATM   39  O           0      -7.622 -19.294   5.154  0.00  0.00    -0.398 OA
HETATM   40  H           0      -7.515 -20.258   5.087  0.00  0.00     0.209 HD
ENDBRANCH  38  39
ENDBRANCH  29  38
ENDBRANCH  26  29
ENDBRANCH  20  25
ENDBRANCH   5  18
ENDBRANCH   3   5
BRANCH   1  41
HETATM   41  C           0      -6.258  -7.900   6.215  0.00  0.00     0.185 C 
BRANCH  41  42
HETATM   42  C           0      -6.381  -7.458   7.686  0.00  0.00     0.137 C 
BRANCH  42  43
HETATM   43  C           0      -7.655  -6.682   8.019  0.00  0.00     0.217 C 
HETATM   44  N           0      -7.441  -5.395   8.371  0.00  0.00    -0.370 N 
HETATM   45  H           0      -8.236  -4.867   8.702  0.00  0.00     0.159 HD
HETATM   46  H           0      -6.499  -4.998   8.475  0.00  0.00     0.159 HD
HETATM   47  O           0      -8.768  -7.213   7.998  0.00  0.00    -0.274 OA
ENDBRANCH  42  43
ENDBRANCH  41  42
BRANCH  41  48
HETATM   48  N           0      -7.337  -7.254   5.477  0.00  0.00    -0.346 N 
HETATM   49  H           0      -8.287  -7.396   5.797  0.00  0.00     0.163 HD
HETATM   50  C           0      -7.153  -6.556   4.338  0.00  0.00     0.241 C 
HETATM   51  O           0      -6.049  -6.420   3.797  0.00  0.00    -0.271 OA
BRANCH  50  52
HETATM   52  C           0      -8.401  -5.890   3.729  0.00  0.00     0.177 C 
BRANCH  52  53
HETATM   53  N           0      -8.079  -4.672   2.993  0.00  0.00    -0.346 N 
HETATM   54  H           0      -7.441  -4.731   2.208  0.00  0.00     0.163 HD
HETATM   55  C           0      -8.702  -3.490   3.248  0.00  0.00     0.236 C 
HETATM   56  O           0      -9.572  -3.364   4.106  0.00  0.00    -0.272 OA
BRANCH  55  57
HETATM   57  C           0      -8.285  -2.294   2.383  0.00  0.00     0.225 C 
BRANCH  57  58
HETATM   58  N           0      -8.357  -1.004   3.066  0.00  0.00    -0.351 N 
HETATM   59  H           0      -9.276  -0.657   3.301  0.00  0.00     0.163 HD
HETATM   60  C           0      -7.236  -0.476   3.611  0.00  0.00     0.248 C 
HETATM   61  O           0      -6.133  -1.013   3.466  0.00  0.00    -0.271 OA
BRANCH  60  62
HETATM   62  C           0      -7.298   0.835   4.404  0.00  0.00     0.275 C 
BRANCH  62  63
HETATM   63  N           0      -7.931   0.672   5.776  0.00  0.00    -0.066 N 
HETATM   64  H           0      -7.271   0.860   6.539  0.00  0.00     0.275 HD
HETATM   65  H           0      -8.760   1.256   5.922  0.00  0.00     0.275 HD
HETATM   66  H           0      -8.244  -0.298   5.893  0.00  0.00     0.275 HD
ENDBRANCH  62  63
BRANCH  62  67
HETATM   67  C           0      -5.951   1.559   4.560  0.00  0.00     0.053 C 
BRANCH  67  68
HETATM   68  C           0      -5.619   1.976   5.998  0.00  0.00     0.115 C 
BRANCH  68  69
HETATM   69  C           0      -4.485   1.203   6.701  0.00  0.00     0.172 C 
HETATM   70  O           0      -4.439  -0.050   6.583  0.00  0.00    -0.648 OA
HETATM   71  O           0      -3.671   1.907   7.382  0.00  0.00    -0.648 OA
ENDBRANCH  68  69
ENDBRANCH  67  68
ENDBRANCH  62  67
ENDBRANCH  60  62
ENDBRANCH  57  58
ENDBRANCH  55  57
ENDBRANCH  52  53
BRANCH  52  72
HETATM   72  C           0      -9.167  -6.856   2.796  0.00  0.00     0.038 C 
BRANCH  72  73
HETATM   73  C           0     -10.659  -7.088   3.104  0.00  0.00    -0.020 C 
HETATM   74  C           0     -11.024  -6.731   4.552  0.00  0.00     0.009 C 
HETATM   75  C           0     -11.511  -6.283   2.110  0.00  0.00     0.009 C 
ENDBRANCH  72  73
ENDBRANCH  52  72
ENDBRANCH  50  52
ENDBRANCH  41  48
ENDBRANCH   1  41
TORSDOF 28
ENDMDL
MODEL 7
REMARK VINA RESULT:      -5.1     14.668     23.688
REMARK  28 active torsions:
REMARK  status: ('A' for Active; 'I' for Inactive)
REMARK       I    between atoms: C_1  and  N_3 
REMARK    1  A    between atoms: C_1  and  C_41 
REMARK    2  A    between atoms: N_3  and  C_5 
REMARK    3  A    between atoms: C_5  and  C_6 
REMARK    4  A    between atoms: C_5  and  C_18 
REMARK       I    between atoms: C_18  and  N_19 
REMARK    5  A    between atoms: C_20  and  C_25 
REMARK       I    between atoms: C_25  and  N_26 
REMARK    6  A    between atoms: N_26  and  C_29 
REMARK    7  A    between atoms: C_29  and  C_30 
REMARK    8  A    between atoms: C_29  and  C_38 
REMARK       I    between atoms: C_30  and  N_31 
REMARK    9  A    between atoms: N_31  and  C_34 
REMARK   10  A    between atoms: C_34  and  C_35 
REMARK   11  A    between atoms: C_38  and  O_39 
REMARK   12  A    between atoms: C_6  and  C_7 
REMARK   13  A    between atoms: C_7  and  C_8 
REMARK   14  A    between atoms: C_8  and  N_9 
REMARK       I    between atoms: N_9  and  C_10 
REMARK       I    between atoms: C_10  and  N_12 
REMARK   15  A    between atoms: C_41  and  C_42 
REMARK   16  A    between atoms: C_41  and  N_48 
REMARK       I    between atoms: N_48  and  C_50 
REMARK   17  A    between atoms: C_50  and  C_52 
REMARK   18  A    between atoms: C_52  and  N_53 
REMARK   19  A    between atoms: C_52  and  C_72 
REMARK       I    between atoms: N_53  and  C_55 
REMARK   20  A    between atoms: C_55  and  C_57 
REMARK   21  A    between atoms: C_57  and  N_58 
REMARK       I    between atoms: N_58  and  C_60 
REMARK   22  A    between atoms: C_60  and  C_62 
REMARK   23  A    between atoms: C_62  and  N_63 
REMARK   24  A    between atoms: C_62  and  C_67 
REMARK   25  A    between atoms: C_67  and  C_68 
REMARK   26  A    between atoms: C_68  and  C_69 
REMARK   27  A    between atoms: C_72  and  C_73 
REMARK   28  A    between atoms: C_42  and  C_43 
REMARK       I    between atoms: C_43  and  N_44 
ROOT
HETATM    1  C           0      -5.289 -15.719   8.412  0.00  0.00     0.241 C 
HETATM    2  O           0      -4.392 -14.928   8.101  0.00  0.00    -0.271 OA
HETATM    3  N           0      -6.598 -15.395   8.291  0.00  0.00    -0.346 N 
HETATM    4  H           0      -7.304 -16.057   8.590  0.00  0.00     0.163 HD
ENDROOT
BRANCH   3   5
HETATM    5  C           0      -6.993 -14.166   7.606  0.00  0.00     0.176 C 
BRANCH   5   6
HETATM    6  C           0      -8.233 -14.382   6.722  0.00  0.00     0.036 C 
BRANCH   6   7
HETATM    7  C           0      -7.835 -14.553   5.251  0.00  0.00     0.023 C 
BRANCH   7   8
HETATM    8  C           0      -8.335 -13.437   4.334  0.00  0.00     0.138 C 
BRANCH   8   9
HETATM    9  N           0      -7.298 -12.408   4.291  0.00  0.00    -0.227 N 
HETATM   10  C           0      -7.398 -11.158   4.732  0.00  0.00     0.665 C 
HETATM   11  N           0      -8.543 -10.676   5.235  0.00  0.00    -0.235 N 
HETATM   12  N           0      -6.298 -10.385   4.668  0.00  0.00    -0.235 N 
HETATM   13  H           0      -8.565  -9.779   5.695  0.00  0.00     0.174 HD
HETATM   14  H           0      -9.345 -11.275   5.357  0.00  0.00     0.174 HD
HETATM   15  H           0      -6.376  -9.383   4.756  0.00  0.00     0.174 HD
HETATM   16  H           0      -5.508 -10.779   4.153  0.00  0.00     0.174 HD
HETATM   17  H           0      -6.384 -12.629   3.861  0.00  0.00     0.177 HD
ENDBRANCH   8   9
ENDBRANCH   7   8
ENDBRANCH   6   7
ENDBRANCH   5   6
BRANCH   5  18
HETATM   18  C           0      -7.101 -12.913   8.504  0.00  0.00     0.243 C 
HETATM   19  N           0      -6.280 -11.847   8.301  0.00  0.00    -0.337 N 
HETATM   20  C           0      -6.486 -10.619   9.089  0.00  0.00     0.179 C 
HETATM   21  C           0      -4.923 -11.863   7.716  0.00  0.00     0.127 C 
HETATM   22  C           0      -5.079  -9.967   9.182  0.00  0.00     0.037 C 
HETATM   23  C           0      -4.110 -11.079   8.752  0.00  0.00     0.022 C 
HETATM   24  O           0      -7.997 -12.900   9.352  0.00  0.00    -0.271 OA
BRANCH  20  25
HETATM   25  C           0      -7.500  -9.628   8.491  0.00  0.00     0.241 C 
HETATM   26  N           0      -7.037  -8.693   7.623  0.00  0.00    -0.344 N 
HETATM   27  H           0      -6.049  -8.673   7.381  0.00  0.00     0.163 HD
HETATM   28  O           0      -8.683  -9.709   8.831  0.00  0.00    -0.271 OA
BRANCH  26  29
HETATM   29  C           0      -7.876  -7.601   7.150  0.00  0.00     0.200 C 
BRANCH  29  30
HETATM   30  C           0      -7.638  -7.153   5.695  0.00  0.00     0.242 C 
HETATM   31  N           0      -8.633  -6.519   5.061  0.00  0.00    -0.354 N 
HETATM   32  H           0      -9.512  -6.278   5.512  0.00  0.00     0.162 HD
HETATM   33  O           0      -6.542  -7.401   5.168  0.00  0.00    -0.271 OA
BRANCH  31  34
HETATM   34  C           0      -8.521  -6.004   3.709  0.00  0.00     0.203 C 
BRANCH  34  35
HETATM   35  C           0      -8.200  -4.482   3.734  0.00  0.00     0.307 C 
HETATM   36  O           0      -6.985  -4.166   3.626  0.00  0.00    -0.186 OA
HETATM   37  O           0      -9.197  -3.729   3.858  0.00  0.00    -0.186 OA
ENDBRANCH  34  35
ENDBRANCH  31  34
ENDBRANCH  29  30
BRANCH  29  38
HETATM   38  C           0      -7.772  -6.377   8.086  0.00  0.00     0.199 C 
BRANCH  38  39
HETATM   39  O           0      -8.647  -6.460   9.195  0.00  0.00    -0.398 OA
HETATM   40  H           0      -8.228  -6.971   9.909  0.00  0.00     0.209 HD
ENDBRANCH  38  39
ENDBRANCH  29  38
ENDBRANCH  26  29
ENDBRANCH  20  25
ENDBRANCH   5  18
ENDBRANCH   3   5
BRANCH   1  41
HETATM   41  C           0      -4.963 -17.142   8.912  0.00  0.00     0.185 C 
BRANCH  41  42
HETATM   42  C           0      -3.670 -17.190   9.749  0.00  0.00     0.137 C 
BRANCH  42  43
HETATM   43  C           0      -2.485 -17.868   9.062  0.00  0.00     0.217 C 
HETATM   44  N           0      -2.012 -18.950   9.717  0.00  0.00    -0.370 N 
HETATM   45  H           0      -1.165 -19.372   9.362  0.00  0.00     0.159 HD
HETATM   46  H           0      -2.372 -19.246  10.632  0.00  0.00     0.159 HD
HETATM   47  O           0      -1.995 -17.426   8.019  0.00  0.00    -0.274 OA
ENDBRANCH  42  43
ENDBRANCH  41  42
BRANCH  41  48
HETATM   48  N           0      -4.803 -18.087   7.814  0.00  0.00    -0.346 N 
HETATM   49  H           0      -3.866 -18.305   7.502  0.00  0.00     0.163 HD
HETATM   50  C           0      -5.836 -18.617   7.126  0.00  0.00     0.241 C 
HETATM   51  O           0      -7.018 -18.330   7.349  0.00  0.00    -0.271 OA
BRANCH  50  52
HETATM   52  C           0      -5.480 -19.649   6.038  0.00  0.00     0.177 C 
BRANCH  52  53
HETATM   53  N           0      -4.213 -20.323   6.303  0.00  0.00    -0.346 N 
HETATM   54  H           0      -4.080 -20.777   7.198  0.00  0.00     0.163 HD
HETATM   55  C           0      -3.261 -20.466   5.343  0.00  0.00     0.236 C 
HETATM   56  O           0      -3.396 -20.045   4.197  0.00  0.00    -0.272 OA
BRANCH  55  57
HETATM   57  C           0      -1.986 -21.217   5.749  0.00  0.00     0.225 C 
BRANCH  57  58
HETATM   58  N           0      -0.969 -20.378   6.378  0.00  0.00    -0.351 N 
HETATM   59  H           0      -1.115 -19.379   6.354  0.00  0.00     0.163 HD
HETATM   60  C           0      -0.054 -20.943   7.201  0.00  0.00     0.248 C 
HETATM   61  O           0      -0.001 -22.167   7.362  0.00  0.00    -0.271 OA
BRANCH  60  62
HETATM   62  C           0       0.973 -20.076   7.938  0.00  0.00     0.275 C 
BRANCH  62  63
HETATM   63  N           0       2.321 -20.758   8.102  0.00  0.00    -0.066 N 
HETATM   64  H           0       2.554 -21.364   7.308  0.00  0.00     0.275 HD
HETATM   65  H           0       3.099 -20.107   8.245  0.00  0.00     0.275 HD
HETATM   66  H           0       2.299 -21.360   8.932  0.00  0.00     0.275 HD
ENDBRANCH  62  63
BRANCH  62  67
HETATM   67  C           0       1.192 -18.680   7.332  0.00  0.00     0.053 C 
BRANCH  67  68
HETATM   68  C           0       2.335 -17.884   7.971  0.00  0.00     0.115 C 
BRANCH  68  69
HETATM   69  C           0       3.617 -17.713   7.132  0.00  0.00     0.172 C 
HETATM   70  O           0       3.806 -16.626   6.525  0.00  0.00    -0.648 OA
HETATM   71  O           0       4.399 -18.718   7.100  0.00  0.00    -0.648 OA
ENDBRANCH  68  69
ENDBRANCH  67  68
ENDBRANCH  62  67
ENDBRANCH  60  62
ENDBRANCH  57  58
ENDBRANCH  55  57
ENDBRANCH  52  53
BRANCH  52  72
HETATM   72  C           0      -6.592 -20.711   5.873  0.00  0.00     0.038 C 
BRANCH  72  73
HETATM   73  C           0      -6.759 -21.335   4.475  0.00  0.00    -0.020 C 
HETATM   74  C           0      -6.426 -22.834   4.455  0.00  0.00     0.009 C 
HETATM   75  C           0      -8.193 -21.087   3.980  0.00  0.00     0.009 C 
ENDBRANCH  72  73
ENDBRANCH  52  72
ENDBRANCH  50  52
ENDBRANCH  41  48
ENDBRANCH   1  41
TORSDOF 28
ENDMDL
MODEL 8
REMARK VINA RESULT:      -5.1     20.512     28.080
REMARK  28 active torsions:
REMARK  status: ('A' for Active; 'I' for Inactive)
REMARK       I    between atoms: C_1  and  N_3 
REMARK    1  A    between atoms: C_1  and  C_41 
REMARK    2  A    between atoms: N_3  and  C_5 
REMARK    3  A    between atoms: C_5  and  C_6 
REMARK    4  A    between atoms: C_5  and  C_18 
REMARK       I    between atoms: C_18  and  N_19 
REMARK    5  A    between atoms: C_20  and  C_25 
REMARK       I    between atoms: C_25  and  N_26 
REMARK    6  A    between atoms: N_26  and  C_29 
REMARK    7  A    between atoms: C_29  and  C_30 
REMARK    8  A    between atoms: C_29  and  C_38 
REMARK       I    between atoms: C_30  and  N_31 
REMARK    9  A    between atoms: N_31  and  C_34 
REMARK   10  A    between atoms: C_34  and  C_35 
REMARK   11  A    between atoms: C_38  and  O_39 
REMARK   12  A    between atoms: C_6  and  C_7 
REMARK   13  A    between atoms: C_7  and  C_8 
REMARK   14  A    between atoms: C_8  and  N_9 
REMARK       I    between atoms: N_9  and  C_10 
REMARK       I    between atoms: C_10  and  N_12 
REMARK   15  A    between atoms: C_41  and  C_42 
REMARK   16  A    between atoms: C_41  and  N_48 
REMARK       I    between atoms: N_48  and  C_50 
REMARK   17  A    between atoms: C_50  and  C_52 
REMARK   18  A    between atoms: C_52  and  N_53 
REMARK   19  A    between atoms: C_52  and  C_72 
REMARK       I    between atoms: N_53  and  C_55 
REMARK   20  A    between atoms: C_55  and  C_57 
REMARK   21  A    between atoms: C_57  and  N_58 
REMARK       I    between atoms: N_58  and  C_60 
REMARK   22  A    between atoms: C_60  and  C_62 
REMARK   23  A    between atoms: C_62  and  N_63 
REMARK   24  A    between atoms: C_62  and  C_67 
REMARK   25  A    between atoms: C_67  and  C_68 
REMARK   26  A    between atoms: C_68  and  C_69 
REMARK   27  A    between atoms: C_72  and  C_73 
REMARK   28  A    between atoms: C_42  and  C_43 
REMARK       I    between atoms: C_43  and  N_44 
ROOT
HETATM    1  C           0      -2.340 -20.937   5.565  0.00  0.00     0.241 C 
HETATM    2  O           0      -2.303 -19.996   4.765  0.00  0.00    -0.271 OA
HETATM    3  N           0      -2.689 -22.188   5.180  0.00  0.00    -0.346 N 
HETATM    4  H           0      -2.741 -22.925   5.873  0.00  0.00     0.163 HD
ENDROOT
BRANCH   3   5
HETATM    5  C           0      -2.847 -22.504   3.762  0.00  0.00     0.176 C 
BRANCH   5   6
HETATM    6  C           0      -1.656 -23.314   3.225  0.00  0.00     0.036 C 
BRANCH   6   7
HETATM    7  C           0      -1.506 -24.638   3.982  0.00  0.00     0.023 C 
BRANCH   7   8
HETATM    8  C           0      -0.182 -24.784   4.733  0.00  0.00     0.138 C 
BRANCH   8   9
HETATM    9  N           0       0.652 -23.639   4.375  0.00  0.00    -0.227 N 
HETATM   10  C           0       1.198 -22.759   5.209  0.00  0.00     0.665 C 
HETATM   11  N           0       0.974 -22.807   6.530  0.00  0.00    -0.235 N 
HETATM   12  N           0       1.999 -21.815   4.683  0.00  0.00    -0.235 N 
HETATM   13  H           0       1.504 -22.226   7.162  0.00  0.00     0.174 HD
HETATM   14  H           0       0.439 -23.558   6.936  0.00  0.00     0.174 HD
HETATM   15  H           0       2.237 -20.995   5.219  0.00  0.00     0.174 HD
HETATM   16  H           0       2.013 -21.763   3.662  0.00  0.00     0.174 HD
HETATM   17  H           0       0.846 -23.446   3.378  0.00  0.00     0.177 HD
ENDBRANCH   8   9
ENDBRANCH   7   8
ENDBRANCH   6   7
ENDBRANCH   5   6
BRANCH   5  18
HETATM   18  C           0      -4.215 -23.105   3.367  0.00  0.00     0.243 C 
HETATM   19  N           0      -4.553 -23.248   2.057  0.00  0.00    -0.337 N 
HETATM   20  C           0      -5.807 -23.936   1.707  0.00  0.00     0.179 C 
HETATM   21  C           0      -4.074 -22.437   0.917  0.00  0.00     0.127 C 
HETATM   22  C           0      -6.240 -23.309   0.353  0.00  0.00     0.037 C 
HETATM   23  C           0      -5.382 -22.040   0.225  0.00  0.00     0.022 C 
HETATM   24  O           0      -4.942 -23.505   4.281  0.00  0.00    -0.271 OA
BRANCH  20  25
HETATM   25  C           0      -5.695 -25.465   1.581  0.00  0.00     0.241 C 
HETATM   26  N           0      -6.756 -26.215   1.974  0.00  0.00    -0.344 N 
HETATM   27  H           0      -7.593 -25.759   2.328  0.00  0.00     0.163 HD
HETATM   28  O           0      -4.648 -25.951   1.145  0.00  0.00    -0.271 OA
BRANCH  26  29
HETATM   29  C           0      -6.679 -27.665   2.068  0.00  0.00     0.200 C 
BRANCH  29  30
HETATM   30  C           0      -7.978 -28.428   1.743  0.00  0.00     0.242 C 
HETATM   31  N           0      -9.129 -27.949   2.236  0.00  0.00    -0.354 N 
HETATM   32  H           0      -9.186 -27.084   2.767  0.00  0.00     0.162 HD
HETATM   33  O           0      -7.909 -29.453   1.047  0.00  0.00    -0.271 OA
BRANCH  31  34
HETATM   34  C           0     -10.425 -28.544   1.965  0.00  0.00     0.203 C 
BRANCH  34  35
HETATM   35  C           0     -10.974 -29.250   3.238  0.00  0.00     0.307 C 
HETATM   36  O           0     -10.212 -29.263   4.241  0.00  0.00    -0.186 OA
HETATM   37  O           0     -12.127 -29.733   3.124  0.00  0.00    -0.186 OA
ENDBRANCH  34  35
ENDBRANCH  31  34
ENDBRANCH  29  30
BRANCH  29  38
HETATM   38  C           0      -6.160 -28.104   3.454  0.00  0.00     0.199 C 
BRANCH  38  39
HETATM   39  O           0      -7.030 -29.014   4.102  0.00  0.00    -0.398 OA
HETATM   40  H           0      -7.255 -29.742   3.499  0.00  0.00     0.209 HD
ENDBRANCH  38  39
ENDBRANCH  29  38
ENDBRANCH  26  29
ENDBRANCH  20  25
ENDBRANCH   5  18
ENDBRANCH   3   5
BRANCH   1  41
HETATM   41  C           0      -1.942 -20.745   7.044  0.00  0.00     0.185 C 
BRANCH  41  42
HETATM   42  C           0      -3.160 -20.497   7.955  0.00  0.00     0.137 C 
BRANCH  42  43
HETATM   43  C           0      -4.512 -20.535   7.244  0.00  0.00     0.217 C 
HETATM   44  N           0      -5.014 -19.317   6.947  0.00  0.00    -0.370 N 
HETATM   45  H           0      -5.951 -19.281   6.571  0.00  0.00     0.159 HD
HETATM   46  H           0      -4.559 -18.443   7.238  0.00  0.00     0.159 HD
HETATM   47  O           0      -5.095 -21.596   7.005  0.00  0.00    -0.274 OA
ENDBRANCH  42  43
ENDBRANCH  41  42
BRANCH  41  48
HETATM   48  N           0      -1.029 -19.623   7.226  0.00  0.00    -0.346 N 
HETATM   49  H           0      -1.170 -18.795   6.661  0.00  0.00     0.163 HD
HETATM   50  C           0       0.049 -19.658   8.036  0.00  0.00     0.241 C 
HETATM   51  O           0       0.378 -20.659   8.683  0.00  0.00    -0.271 OA
BRANCH  50  52
HETATM   52  C           0       0.865 -18.357   8.152  0.00  0.00     0.177 C 
BRANCH  52  53
HETATM   53  N           0       0.175 -17.336   8.934  0.00  0.00    -0.346 N 
HETATM   54  H           0       0.306 -17.318   9.938  0.00  0.00     0.163 HD
HETATM   55  C           0      -0.533 -16.335   8.344  0.00  0.00     0.236 C 
HETATM   56  O           0      -0.641 -16.219   7.126  0.00  0.00    -0.272 OA
BRANCH  55  57
HETATM   57  C           0      -1.188 -15.313   9.284  0.00  0.00     0.225 C 
BRANCH  57  58
HETATM   58  N           0      -1.868 -14.217   8.597  0.00  0.00    -0.351 N 
HETATM   59  H           0      -1.291 -13.553   8.102  0.00  0.00     0.163 HD
HETATM   60  C           0      -3.206 -14.285   8.398  0.00  0.00     0.248 C 
HETATM   61  O           0      -3.881 -15.209   8.862  0.00  0.00    -0.271 OA
BRANCH  60  62
HETATM   62  C           0      -3.933 -13.189   7.610  0.00  0.00     0.275 C 
BRANCH  62  63
HETATM   63  N           0      -5.231 -13.668   6.983  0.00  0.00    -0.066 N 
HETATM   64  H           0      -5.958 -12.944   6.981  0.00  0.00     0.275 HD
HETATM   65  H           0      -5.125 -14.014   6.024  0.00  0.00     0.275 HD
HETATM   66  H           0      -5.603 -14.453   7.528  0.00  0.00     0.275 HD
ENDBRANCH  62  63
BRANCH  62  67
HETATM   67  C           0      -4.208 -11.900   8.401  0.00  0.00     0.053 C 
BRANCH  67  68
HETATM   68  C           0      -5.153 -10.916   7.702  0.00  0.00     0.115 C 
BRANCH  68  69
HETATM   69  C           0      -6.415 -10.493   8.479  0.00  0.00     0.172 C 
HETATM   70  O           0      -6.282  -9.982   9.622  0.00  0.00    -0.648 OA
HETATM   71  O           0      -7.527 -10.717   7.900  0.00  0.00    -0.648 OA
ENDBRANCH  68  69
ENDBRANCH  67  68
ENDBRANCH  62  67
ENDBRANCH  60  62
ENDBRANCH  57  58
ENDBRANCH  55  57
ENDBRANCH  52  53
BRANCH  52  72
HETATM   72  C           0       2.259 -18.610   8.772  0.00  0.00     0.038 C 
BRANCH  72  73
HETATM   73  C           0       3.471 -18.516   7.826  0.00  0.00    -0.020 C 
HETATM   74  C           0       3.686 -19.802   7.014  0.00  0.00     0.009 C 
HETATM   75  C           0       3.293 -17.305   6.896  0.00  0.00     0.009 C 
ENDBRANCH  72  73
ENDBRANCH  52  72
ENDBRANCH  50  52
ENDBRANCH  41  48
ENDBRANCH   1  41
TORSDOF 28
ENDMDL
MODEL 9
REMARK VINA RESULT:      -5.0      4.637     15.118
REMARK  28 active torsions:
REMARK  status: ('A' for Active; 'I' for Inactive)
REMARK       I    between atoms: C_1  and  N_3 
REMARK    1  A    between atoms: C_1  and  C_41 
REMARK    2  A    between atoms: N_3  and  C_5 
REMARK    3  A    between atoms: C_5  and  C_6 
REMARK    4  A    between atoms: C_5  and  C_18 
REMARK       I    between atoms: C_18  and  N_19 
REMARK    5  A    between atoms: C_20  and  C_25 
REMARK       I    between atoms: C_25  and  N_26 
REMARK    6  A    between atoms: N_26  and  C_29 
REMARK    7  A    between atoms: C_29  and  C_30 
REMARK    8  A    between atoms: C_29  and  C_38 
REMARK       I    between atoms: C_30  and  N_31 
REMARK    9  A    between atoms: N_31  and  C_34 
REMARK   10  A    between atoms: C_34  and  C_35 
REMARK   11  A    between atoms: C_38  and  O_39 
REMARK   12  A    between atoms: C_6  and  C_7 
REMARK   13  A    between atoms: C_7  and  C_8 
REMARK   14  A    between atoms: C_8  and  N_9 
REMARK       I    between atoms: N_9  and  C_10 
REMARK       I    between atoms: C_10  and  N_12 
REMARK   15  A    between atoms: C_41  and  C_42 
REMARK   16  A    between atoms: C_41  and  N_48 
REMARK       I    between atoms: N_48  and  C_50 
REMARK   17  A    between atoms: C_50  and  C_52 
REMARK   18  A    between atoms: C_52  and  N_53 
REMARK   19  A    between atoms: C_52  and  C_72 
REMARK       I    between atoms: N_53  and  C_55 
REMARK   20  A    between atoms: C_55  and  C_57 
REMARK   21  A    between atoms: C_57  and  N_58 
REMARK       I    between atoms: N_58  and  C_60 
REMARK   22  A    between atoms: C_60  and  C_62 
REMARK   23  A    between atoms: C_62  and  N_63 
REMARK   24  A    between atoms: C_62  and  C_67 
REMARK   25  A    between atoms: C_67  and  C_68 
REMARK   26  A    between atoms: C_68  and  C_69 
REMARK   27  A    between atoms: C_72  and  C_73 
REMARK   28  A    between atoms: C_42  and  C_43 
REMARK       I    between atoms: C_43  and  N_44 
ROOT
HETATM    1  C           0      -9.276  -0.859   7.232  0.00  0.00     0.241 C 
HETATM    2  O           0      -9.885   0.038   7.825  0.00  0.00    -0.271 OA
HETATM    3  N           0      -8.041  -0.662   6.715  0.00  0.00    -0.346 N 
HETATM    4  H           0      -7.589  -1.411   6.205  0.00  0.00     0.163 HD
ENDROOT
BRANCH   3   5
HETATM    5  C           0      -7.307   0.568   7.009  0.00  0.00     0.176 C 
BRANCH   5   6
HETATM    6  C           0      -6.067   0.294   7.876  0.00  0.00     0.036 C 
BRANCH   6   7
HETATM    7  C           0      -5.394   1.604   8.302  0.00  0.00     0.023 C 
BRANCH   7   8
HETATM    8  C           0      -6.249   2.477   9.221  0.00  0.00     0.138 C 
BRANCH   8   9
HETATM    9  N           0      -6.256   3.826   8.661  0.00  0.00    -0.227 N 
HETATM   10  C           0      -5.507   4.854   9.050  0.00  0.00     0.665 C 
HETATM   11  N           0      -4.667   4.762  10.090  0.00  0.00    -0.235 N 
HETATM   12  N           0      -5.611   6.001   8.352  0.00  0.00    -0.235 N 
HETATM   13  H           0      -4.005   5.498  10.283  0.00  0.00     0.174 HD
HETATM   14  H           0      -4.529   3.884  10.564  0.00  0.00     0.174 HD
HETATM   15  H           0      -5.263   6.864   8.739  0.00  0.00     0.174 HD
HETATM   16  H           0      -6.365   6.033   7.662  0.00  0.00     0.174 HD
HETATM   17  H           0      -6.912   4.053   7.895  0.00  0.00     0.177 HD
ENDBRANCH   8   9
ENDBRANCH   7   8
ENDBRANCH   6   7
ENDBRANCH   5   6
BRANCH   5  18
HETATM   18  C           0      -7.006   1.467   5.790  0.00  0.00     0.243 C 
HETATM   19  N           0      -7.570   2.701   5.688  0.00  0.00    -0.337 N 
HETATM   20  C           0      -7.171   3.587   4.580  0.00  0.00     0.179 C 
HETATM   21  C           0      -8.855   3.147   6.267  0.00  0.00     0.127 C 
HETATM   22  C           0      -8.414   4.481   4.319  0.00  0.00     0.037 C 
HETATM   23  C           0      -9.560   3.773   5.059  0.00  0.00     0.022 C 
HETATM   24  O           0      -6.190   1.048   4.964  0.00  0.00    -0.271 OA
BRANCH  20  25
HETATM   25  C           0      -5.932   4.456   4.859  0.00  0.00     0.241 C 
HETATM   26  N           0      -5.753   5.568   4.101  0.00  0.00    -0.344 N 
HETATM   27  H           0      -6.434   5.805   3.384  0.00  0.00     0.163 HD
HETATM   28  O           0      -5.147   4.107   5.744  0.00  0.00    -0.271 OA
BRANCH  26  29
HETATM   29  C           0      -4.526   6.349   4.161  0.00  0.00     0.200 C 
BRANCH  29  30
HETATM   30  C           0      -4.400   7.310   5.359  0.00  0.00     0.242 C 
HETATM   31  N           0      -3.171   7.590   5.814  0.00  0.00    -0.354 N 
HETATM   32  H           0      -2.324   7.238   5.374  0.00  0.00     0.162 HD
HETATM   33  O           0      -5.435   7.780   5.856  0.00  0.00    -0.271 OA
BRANCH  31  34
HETATM   34  C           0      -2.912   8.514   6.902  0.00  0.00     0.203 C 
BRANCH  34  35
HETATM   35  C           0      -2.819   9.971   6.365  0.00  0.00     0.307 C 
HETATM   36  O           0      -3.883  10.646   6.394  0.00  0.00    -0.186 OA
HETATM   37  O           0      -1.683  10.318   5.958  0.00  0.00    -0.186 OA
ENDBRANCH  34  35
ENDBRANCH  31  34
ENDBRANCH  29  30
BRANCH  29  38
HETATM   38  C           0      -4.305   7.133   2.850  0.00  0.00     0.199 C 
BRANCH  38  39
HETATM   39  O           0      -3.929   8.480   3.073  0.00  0.00    -0.398 OA
HETATM   40  H           0      -3.084   8.511   3.553  0.00  0.00     0.209 HD
ENDBRANCH  38  39
ENDBRANCH  29  38
ENDBRANCH  26  29
ENDBRANCH  20  25
ENDBRANCH   5  18
ENDBRANCH   3   5
BRANCH   1  41
HETATM   41  C           0      -9.876  -2.274   7.092  0.00  0.00     0.185 C 
BRANCH  41  42
HETATM   42  C           0      -9.891  -3.044   8.426  0.00  0.00     0.137 C 
BRANCH  42  43
HETATM   43  C           0      -8.546  -3.643   8.837  0.00  0.00     0.217 C 
HETATM   44  N           0      -7.724  -2.775   9.465  0.00  0.00    -0.370 N 
HETATM   45  H           0      -6.785  -3.088   9.665  0.00  0.00     0.159 HD
HETATM   46  H           0      -7.956  -1.782   9.590  0.00  0.00     0.159 HD
HETATM   47  O           0      -8.244  -4.810   8.574  0.00  0.00    -0.274 OA
ENDBRANCH  42  43
ENDBRANCH  41  42
BRANCH  41  48
HETATM   48  N           0      -9.144  -3.089   6.130  0.00  0.00    -0.346 N 
HETATM   49  H           0      -8.169  -2.875   5.966  0.00  0.00     0.163 HD
HETATM   50  C           0      -9.714  -4.051   5.376  0.00  0.00     0.241 C 
HETATM   51  O           0     -10.922  -4.315   5.412  0.00  0.00    -0.271 OA
BRANCH  50  52
HETATM   52  C           0      -8.773  -4.855   4.458  0.00  0.00     0.177 C 
BRANCH  52  53
HETATM   53  N           0      -8.852  -6.292   4.702  0.00  0.00    -0.346 N 
HETATM   54  H           0      -9.757  -6.707   4.885  0.00  0.00     0.163 HD
HETATM   55  C           0      -7.769  -7.104   4.566  0.00  0.00     0.236 C 
HETATM   56  O           0      -6.661  -6.693   4.232  0.00  0.00    -0.272 OA
BRANCH  55  57
HETATM   57  C           0      -7.997  -8.599   4.829  0.00  0.00     0.225 C 
BRANCH  57  58
HETATM   58  N           0      -7.224  -9.137   5.946  0.00  0.00    -0.351 N 
HETATM   59  H           0      -6.218  -9.148   5.849  0.00  0.00     0.163 HD
HETATM   60  C           0      -7.825  -9.319   7.145  0.00  0.00     0.248 C 
HETATM   61  O           0      -9.036  -9.127   7.295  0.00  0.00    -0.271 OA
BRANCH  60  62
HETATM   62  C           0      -7.019  -9.805   8.355  0.00  0.00     0.275 C 
BRANCH  62  63
HETATM   63  N           0      -7.770 -10.816   9.205  0.00  0.00    -0.066 N 
HETATM   64  H           0      -7.155 -11.323   9.850  0.00  0.00     0.275 HD
HETATM   65  H           0      -8.536 -10.409   9.751  0.00  0.00     0.275 HD
HETATM   66  H           0      -8.200 -11.520   8.597  0.00  0.00     0.275 HD
ENDBRANCH  62  63
BRANCH  62  67
HETATM   67  C           0      -5.630 -10.372   8.019  0.00  0.00     0.053 C 
BRANCH  67  68
HETATM   68  C           0      -4.460  -9.578   8.612  0.00  0.00     0.115 C 
BRANCH  68  69
HETATM   69  C           0      -4.138  -8.221   7.954  0.00  0.00     0.172 C 
HETATM   70  O           0      -3.605  -7.319   8.652  0.00  0.00    -0.648 OA
HETATM   71  O           0      -4.463  -8.106   6.728  0.00  0.00    -0.648 OA
ENDBRANCH  68  69
ENDBRANCH  67  68
ENDBRANCH  62  67
ENDBRANCH  60  62
ENDBRANCH  57  58
ENDBRANCH  55  57
ENDBRANCH  52  53
BRANCH  52  72
HETATM   72  C           0      -9.060  -4.580   2.964  0.00  0.00     0.038 C 
BRANCH  72  73
HETATM   73  C           0      -9.475  -3.146   2.585  0.00  0.00    -0.020 C 
HETATM   74  C           0      -8.271  -2.206   2.429  0.00  0.00     0.009 C 
HETATM   75  C           0     -10.309  -3.187   1.294  0.00  0.00     0.009 C 
ENDBRANCH  72  73
ENDBRANCH  52  72
ENDBRANCH  50  52
ENDBRANCH  41  48
ENDBRANCH   1  41
TORSDOF 28
ENDMDL
