MODEL 1
REMARK VINA RESULT:      -3.1      0.000      0.000
REMARK  28 active torsions:
REMARK  status: ('A' for Active; 'I' for Inactive)
REMARK       I    between atoms: C_1  and  N_3 
REMARK    1  A    between atoms: C_1  and  C_41 
REMARK    2  A    between atoms: N_3  and  C_5 
REMARK    3  A    between atoms: C_5  and  C_6 
REMARK    4  A    between atoms: C_5  and  C_18 
REMARK       I    between atoms: C_18  and  N_19 
REMARK    5  A    between atoms: C_20  and  C_25 
REMARK       I    between atoms: C_25  and  N_26 
REMARK    6  A    between atoms: N_26  and  C_29 
REMARK    7  A    between atoms: C_29  and  C_30 
REMARK    8  A    between atoms: C_29  and  C_38 
REMARK       I    between atoms: C_30  and  N_31 
REMARK    9  A    between atoms: N_31  and  C_34 
REMARK   10  A    between atoms: C_34  and  C_35 
REMARK   11  A    between atoms: C_38  and  O_39 
REMARK   12  A    between atoms: C_6  and  C_7 
REMARK   13  A    between atoms: C_7  and  C_8 
REMARK   14  A    between atoms: C_8  and  N_9 
REMARK       I    between atoms: N_9  and  C_10 
REMARK       I    between atoms: C_10  and  N_12 
REMARK   15  A    between atoms: C_41  and  C_42 
REMARK   16  A    between atoms: C_41  and  N_48 
REMARK       I    between atoms: N_48  and  C_50 
REMARK   17  A    between atoms: C_50  and  C_52 
REMARK   18  A    between atoms: C_52  and  N_53 
REMARK   19  A    between atoms: C_52  and  C_72 
REMARK       I    between atoms: N_53  and  C_55 
REMARK   20  A    between atoms: C_55  and  C_57 
REMARK   21  A    between atoms: C_57  and  N_58 
REMARK       I    between atoms: N_58  and  C_60 
REMARK   22  A    between atoms: C_60  and  C_62 
REMARK   23  A    between atoms: C_62  and  N_63 
REMARK   24  A    between atoms: C_62  and  C_67 
REMARK   25  A    between atoms: C_67  and  C_68 
REMARK   26  A    between atoms: C_68  and  C_69 
REMARK   27  A    between atoms: C_72  and  C_73 
REMARK   28  A    between atoms: C_42  and  C_43 
REMARK       I    between atoms: C_43  and  N_44 
ROOT
HETATM    1  C           0     -11.210   0.790   3.068  0.00  0.00     0.241 C 
HETATM    2  O           0     -11.681   0.531   4.181  0.00  0.00    -0.271 OA
HETATM    3  N           0     -10.727  -0.180   2.255  0.00  0.00    -0.346 N 
HETATM    4  H           0     -10.316   0.076   1.365  0.00  0.00     0.163 HD
ENDROOT
BRANCH   3   5
HETATM    5  C           0     -10.923  -1.589   2.592  0.00  0.00     0.176 C 
BRANCH   5   6
HETATM    6  C           0     -12.137  -2.183   1.859  0.00  0.00     0.036 C 
BRANCH   6   7
HETATM    7  C           0     -12.823  -3.256   2.713  0.00  0.00     0.023 C 
BRANCH   7   8
HETATM    8  C           0     -13.773  -4.165   1.933  0.00  0.00     0.138 C 
BRANCH   8   9
HETATM    9  N           0     -13.214  -5.514   1.966  0.00  0.00    -0.227 N 
HETATM   10  C           0     -13.888  -6.652   2.103  0.00  0.00     0.665 C 
HETATM   11  N           0     -15.214  -6.668   2.292  0.00  0.00    -0.235 N 
HETATM   12  N           0     -13.191  -7.801   2.033  0.00  0.00    -0.235 N 
HETATM   13  H           0     -15.729  -7.535   2.251  0.00  0.00     0.174 HD
HETATM   14  H           0     -15.749  -5.815   2.266  0.00  0.00     0.174 HD
HETATM   15  H           0     -13.596  -8.662   2.366  0.00  0.00     0.174 HD
HETATM   16  H           0     -12.173  -7.703   2.021  0.00  0.00     0.174 HD
HETATM   17  H           0     -12.189  -5.639   1.900  0.00  0.00     0.177 HD
ENDBRANCH   8   9
ENDBRANCH   7   8
ENDBRANCH   6   7
ENDBRANCH   5   6
BRANCH   5  18
HETATM   18  C           0      -9.662  -2.475   2.491  0.00  0.00     0.243 C 
HETATM   19  N           0      -8.691  -2.403   3.441  0.00  0.00    -0.337 N 
HETATM   20  C           0      -7.560  -3.346   3.388  0.00  0.00     0.179 C 
HETATM   21  C           0      -8.353  -1.239   4.287  0.00  0.00     0.127 C 
HETATM   22  C           0      -6.377  -2.584   4.049  0.00  0.00     0.037 C 
HETATM   23  C           0      -6.838  -1.119   4.089  0.00  0.00     0.022 C 
HETATM   24  O           0      -9.613  -3.286   1.562  0.00  0.00    -0.271 OA
BRANCH  20  25
HETATM   25  C           0      -7.801  -4.688   4.101  0.00  0.00     0.241 C 
HETATM   26  N           0      -8.518  -5.635   3.445  0.00  0.00    -0.344 N 
HETATM   27  H           0      -8.867  -5.446   2.508  0.00  0.00     0.163 HD
HETATM   28  O           0      -7.350  -4.847   5.238  0.00  0.00    -0.271 OA
BRANCH  26  29
HETATM   29  C           0      -8.956  -6.859   4.101  0.00  0.00     0.200 C 
BRANCH  29  30
HETATM   30  C           0      -8.053  -8.090   3.896  0.00  0.00     0.242 C 
HETATM   31  N           0      -8.098  -9.064   4.816  0.00  0.00    -0.354 N 
HETATM   32  H           0      -8.735  -9.047   5.608  0.00  0.00     0.162 HD
HETATM   33  O           0      -7.318  -8.130   2.897  0.00  0.00    -0.271 OA
BRANCH  31  34
HETATM   34  C           0      -7.336 -10.295   4.717  0.00  0.00     0.203 C 
BRANCH  34  35
HETATM   35  C           0      -8.292 -11.520   4.643  0.00  0.00     0.307 C 
HETATM   36  O           0      -9.524 -11.262   4.570  0.00  0.00    -0.186 OA
HETATM   37  O           0      -7.726 -12.639   4.664  0.00  0.00    -0.186 OA
ENDBRANCH  34  35
ENDBRANCH  31  34
ENDBRANCH  29  30
BRANCH  29  38
HETATM   38  C           0     -10.404  -7.214   3.701  0.00  0.00     0.199 C 
BRANCH  38  39
HETATM   39  O           0     -10.776  -8.522   4.093  0.00  0.00    -0.398 OA
HETATM   40  H           0     -10.136  -8.868   4.737  0.00  0.00     0.209 HD
ENDBRANCH  38  39
ENDBRANCH  29  38
ENDBRANCH  26  29
ENDBRANCH  20  25
ENDBRANCH   5  18
ENDBRANCH   3   5
BRANCH   1  41
HETATM   41  C           0     -11.192   2.233   2.524  0.00  0.00     0.185 C 
BRANCH  41  42
HETATM   42  C           0     -10.573   3.232   3.520  0.00  0.00     0.137 C 
BRANCH  42  43
HETATM   43  C           0      -9.207   2.826   4.072  0.00  0.00     0.217 C 
HETATM   44  N           0      -9.258   2.195   5.265  0.00  0.00    -0.370 N 
HETATM   45  H           0      -8.380   1.998   5.723  0.00  0.00     0.159 HD
HETATM   46  H           0     -10.134   2.065   5.786  0.00  0.00     0.159 HD
HETATM   47  O           0      -8.158   3.094   3.480  0.00  0.00    -0.274 OA
ENDBRANCH  42  43
ENDBRANCH  41  42
BRANCH  41  48
HETATM   48  N           0     -12.529   2.716   2.200  0.00  0.00    -0.346 N 
HETATM   49  H           0     -12.833   2.673   1.237  0.00  0.00     0.163 HD
HETATM   50  C           0     -13.349   3.304   3.095  0.00  0.00     0.241 C 
HETATM   51  O           0     -13.032   3.512   4.273  0.00  0.00    -0.271 OA
BRANCH  50  52
HETATM   52  C           0     -14.752   3.694   2.591  0.00  0.00     0.177 C 
BRANCH  52  53
HETATM   53  N           0     -15.458   2.570   1.985  0.00  0.00    -0.346 N 
HETATM   54  H           0     -15.898   2.699   1.082  0.00  0.00     0.163 HD
HETATM   55  C           0     -15.435   1.326   2.535  0.00  0.00     0.236 C 
HETATM   56  O           0     -14.825   1.062   3.569  0.00  0.00    -0.272 OA
BRANCH  55  57
HETATM   57  C           0     -16.199   0.229   1.782  0.00  0.00     0.225 C 
BRANCH  57  58
HETATM   58  N           0     -17.340  -0.319   2.514  0.00  0.00    -0.351 N 
HETATM   59  H           0     -18.031   0.337   2.849  0.00  0.00     0.163 HD
HETATM   60  C           0     -17.584  -1.649   2.466  0.00  0.00     0.248 C 
HETATM   61  O           0     -16.814  -2.427   1.892  0.00  0.00    -0.271 OA
BRANCH  60  62
HETATM   62  C           0     -18.819  -2.240   3.157  0.00  0.00     0.275 C 
BRANCH  62  63
HETATM   63  N           0     -19.998  -2.424   2.215  0.00  0.00    -0.066 N 
HETATM   64  H           0     -20.892  -2.490   2.713  0.00  0.00     0.275 HD
HETATM   65  H           0     -20.081  -1.687   1.508  0.00  0.00     0.275 HD
HETATM   66  H           0     -19.886  -3.301   1.697  0.00  0.00     0.275 HD
ENDBRANCH  62  63
BRANCH  62  67
HETATM   67  C           0     -18.570  -3.559   3.906  0.00  0.00     0.053 C 
BRANCH  67  68
HETATM   68  C           0     -17.661  -3.428   5.134  0.00  0.00     0.115 C 
BRANCH  68  69
HETATM   69  C           0     -16.256  -4.052   5.028  0.00  0.00     0.172 C 
HETATM   70  O           0     -16.152  -5.267   4.711  0.00  0.00    -0.648 OA
HETATM   71  O           0     -15.281  -3.278   5.296  0.00  0.00    -0.648 OA
ENDBRANCH  68  69
ENDBRANCH  67  68
ENDBRANCH  62  67
ENDBRANCH  60  62
ENDBRANCH  57  58
ENDBRANCH  55  57
ENDBRANCH  52  53
BRANCH  52  72
HETATM   72  C           0     -15.622   4.286   3.723  0.00  0.00     0.038 C 
BRANCH  72  73
HETATM   73  C           0     -16.984   4.882   3.318  0.00  0.00    -0.020 C 
HETATM   74  C           0     -17.443   6.000   4.266  0.00  0.00     0.009 C 
HETATM   75  C           0     -16.901   5.392   1.870  0.00  0.00     0.009 C 
ENDBRANCH  72  73
ENDBRANCH  52  72
ENDBRANCH  50  52
ENDBRANCH  41  48
ENDBRANCH   1  41
TORSDOF 28
ENDMDL
MODEL 2
REMARK VINA RESULT:      -2.9      3.670      8.110
REMARK  28 active torsions:
REMARK  status: ('A' for Active; 'I' for Inactive)
REMARK       I    between atoms: C_1  and  N_3 
REMARK    1  A    between atoms: C_1  and  C_41 
REMARK    2  A    between atoms: N_3  and  C_5 
REMARK    3  A    between atoms: C_5  and  C_6 
REMARK    4  A    between atoms: C_5  and  C_18 
REMARK       I    between atoms: C_18  and  N_19 
REMARK    5  A    between atoms: C_20  and  C_25 
REMARK       I    between atoms: C_25  and  N_26 
REMARK    6  A    between atoms: N_26  and  C_29 
REMARK    7  A    between atoms: C_29  and  C_30 
REMARK    8  A    between atoms: C_29  and  C_38 
REMARK       I    between atoms: C_30  and  N_31 
REMARK    9  A    between atoms: N_31  and  C_34 
REMARK   10  A    between atoms: C_34  and  C_35 
REMARK   11  A    between atoms: C_38  and  O_39 
REMARK   12  A    between atoms: C_6  and  C_7 
REMARK   13  A    between atoms: C_7  and  C_8 
REMARK   14  A    between atoms: C_8  and  N_9 
REMARK       I    between atoms: N_9  and  C_10 
REMARK       I    between atoms: C_10  and  N_12 
REMARK   15  A    between atoms: C_41  and  C_42 
REMARK   16  A    between atoms: C_41  and  N_48 
REMARK       I    between atoms: N_48  and  C_50 
REMARK   17  A    between atoms: C_50  and  C_52 
REMARK   18  A    between atoms: C_52  and  N_53 
REMARK   19  A    between atoms: C_52  and  C_72 
REMARK       I    between atoms: N_53  and  C_55 
REMARK   20  A    between atoms: C_55  and  C_57 
REMARK   21  A    between atoms: C_57  and  N_58 
REMARK       I    between atoms: N_58  and  C_60 
REMARK   22  A    between atoms: C_60  and  C_62 
REMARK   23  A    between atoms: C_62  and  N_63 
REMARK   24  A    between atoms: C_62  and  C_67 
REMARK   25  A    between atoms: C_67  and  C_68 
REMARK   26  A    between atoms: C_68  and  C_69 
REMARK   27  A    between atoms: C_72  and  C_73 
REMARK   28  A    between atoms: C_42  and  C_43 
REMARK       I    between atoms: C_43  and  N_44 
ROOT
HETATM    1  C           0     -10.063  -6.042   4.024  0.00  0.00     0.241 C 
HETATM    2  O           0     -10.941  -5.610   4.778  0.00  0.00    -0.271 OA
HETATM    3  N           0     -10.266  -7.128   3.241  0.00  0.00    -0.346 N 
HETATM    4  H           0      -9.509  -7.473   2.662  0.00  0.00     0.163 HD
ENDROOT
BRANCH   3   5
HETATM    5  C           0     -11.601  -7.711   3.122  0.00  0.00     0.176 C 
BRANCH   5   6
HETATM    6  C           0     -12.115  -7.661   1.674  0.00  0.00     0.036 C 
BRANCH   6   7
HETATM    7  C           0     -13.351  -6.761   1.560  0.00  0.00     0.023 C 
BRANCH   7   8
HETATM    8  C           0     -13.257  -5.463   2.363  0.00  0.00     0.138 C 
BRANCH   8   9
HETATM    9  N           0     -14.417  -5.411   3.248  0.00  0.00    -0.227 N 
HETATM   10  C           0     -14.541  -4.687   4.357  0.00  0.00     0.665 C 
HETATM   11  N           0     -13.534  -3.939   4.827  0.00  0.00    -0.235 N 
HETATM   12  N           0     -15.726  -4.722   4.995  0.00  0.00    -0.235 N 
HETATM   13  H           0     -13.687  -3.288   5.583  0.00  0.00     0.174 HD
HETATM   14  H           0     -12.674  -3.849   4.311  0.00  0.00     0.174 HD
HETATM   15  H           0     -15.800  -4.399   5.947  0.00  0.00     0.174 HD
HETATM   16  H           0     -16.395  -5.415   4.651  0.00  0.00     0.174 HD
HETATM   17  H           0     -15.242  -5.998   3.037  0.00  0.00     0.177 HD
ENDBRANCH   8   9
ENDBRANCH   7   8
ENDBRANCH   6   7
ENDBRANCH   5   6
BRANCH   5  18
HETATM   18  C           0     -11.779  -9.097   3.780  0.00  0.00     0.243 C 
HETATM   19  N           0     -13.014  -9.659   3.882  0.00  0.00    -0.337 N 
HETATM   20  C           0     -13.141 -11.032   4.399  0.00  0.00     0.179 C 
HETATM   21  C           0     -14.312  -8.955   3.964  0.00  0.00     0.127 C 
HETATM   22  C           0     -14.548 -11.080   5.058  0.00  0.00     0.037 C 
HETATM   23  C           0     -14.961  -9.606   5.190  0.00  0.00     0.022 C 
HETATM   24  O           0     -10.757  -9.689   4.138  0.00  0.00    -0.271 OA
BRANCH  20  25
HETATM   25  C           0     -13.005 -12.139   3.340  0.00  0.00     0.241 C 
HETATM   26  N           0     -12.124 -13.143   3.580  0.00  0.00    -0.344 N 
HETATM   27  H           0     -11.589 -13.149   4.444  0.00  0.00     0.163 HD
HETATM   28  O           0     -13.685 -12.067   2.313  0.00  0.00    -0.271 OA
BRANCH  26  29
HETATM   29  C           0     -11.789 -14.131   2.564  0.00  0.00     0.200 C 
BRANCH  29  30
HETATM   30  C           0     -12.484 -15.500   2.704  0.00  0.00     0.242 C 
HETATM   31  N           0     -12.231 -16.432   1.775  0.00  0.00    -0.354 N 
HETATM   32  H           0     -11.567 -16.292   1.017  0.00  0.00     0.162 HD
HETATM   33  O           0     -13.250 -15.683   3.663  0.00  0.00    -0.271 OA
BRANCH  31  34
HETATM   34  C           0     -12.781 -17.774   1.817  0.00  0.00     0.203 C 
BRANCH  34  35
HETATM   35  C           0     -11.714 -18.781   2.336  0.00  0.00     0.307 C 
HETATM   36  O           0     -10.826 -18.310   3.097  0.00  0.00    -0.186 OA
HETATM   37  O           0     -11.857 -19.962   1.936  0.00  0.00    -0.186 OA
ENDBRANCH  34  35
ENDBRANCH  31  34
ENDBRANCH  29  30
BRANCH  29  38
HETATM   38  C           0     -10.262 -14.338   2.476  0.00  0.00     0.199 C 
BRANCH  38  39
HETATM   39  O           0      -9.649 -14.447   3.747  0.00  0.00    -0.398 OA
HETATM   40  H           0     -10.208 -14.979   4.338  0.00  0.00     0.209 HD
ENDBRANCH  38  39
ENDBRANCH  29  38
ENDBRANCH  26  29
ENDBRANCH  20  25
ENDBRANCH   5  18
ENDBRANCH   3   5
BRANCH   1  41
HETATM   41  C           0      -8.697  -5.334   3.898  0.00  0.00     0.185 C 
BRANCH  41  42
HETATM   42  C           0      -7.722  -5.731   5.023  0.00  0.00     0.137 C 
BRANCH  42  43
HETATM   43  C           0      -6.618  -6.701   4.602  0.00  0.00     0.217 C 
HETATM   44  N           0      -6.085  -6.439   3.389  0.00  0.00    -0.370 N 
HETATM   45  H           0      -5.427  -7.109   3.018  0.00  0.00     0.159 HD
HETATM   46  H           0      -6.442  -5.696   2.775  0.00  0.00     0.159 HD
HETATM   47  O           0      -6.285  -7.656   5.308  0.00  0.00    -0.274 OA
ENDBRANCH  42  43
ENDBRANCH  41  42
BRANCH  41  48
HETATM   48  N           0      -8.826  -3.882   3.929  0.00  0.00    -0.346 N 
HETATM   49  H           0      -9.029  -3.438   4.815  0.00  0.00     0.163 HD
HETATM   50  C           0      -8.785  -3.103   2.828  0.00  0.00     0.241 C 
HETATM   51  O           0      -8.659  -3.553   1.683  0.00  0.00    -0.271 OA
BRANCH  50  52
HETATM   52  C           0      -8.876  -1.582   3.058  0.00  0.00     0.177 C 
BRANCH  52  53
HETATM   53  N           0     -10.198  -1.050   2.747  0.00  0.00    -0.346 N 
HETATM   54  H           0     -10.310  -0.469   1.925  0.00  0.00     0.163 HD
HETATM   55  C           0     -11.303  -1.413   3.452  0.00  0.00     0.236 C 
HETATM   56  O           0     -11.269  -2.205   4.390  0.00  0.00    -0.272 OA
BRANCH  55  57
HETATM   57  C           0     -12.636  -0.798   3.003  0.00  0.00     0.225 C 
BRANCH  57  58
HETATM   58  N           0     -13.119   0.281   3.863  0.00  0.00    -0.351 N 
HETATM   59  H           0     -13.695   0.021   4.650  0.00  0.00     0.163 HD
HETATM   60  C           0     -12.562   1.511   3.763  0.00  0.00     0.248 C 
HETATM   61  O           0     -11.716   1.769   2.899  0.00  0.00    -0.271 OA
BRANCH  60  62
HETATM   62  C           0     -12.992   2.640   4.707  0.00  0.00     0.275 C 
BRANCH  62  63
HETATM   63  N           0     -12.595   4.019   4.207  0.00  0.00    -0.066 N 
HETATM   64  H           0     -11.977   3.978   3.389  0.00  0.00     0.275 HD
HETATM   65  H           0     -13.391   4.620   3.973  0.00  0.00     0.275 HD
HETATM   66  H           0     -12.075   4.511   4.942  0.00  0.00     0.275 HD
ENDBRANCH  62  63
BRANCH  62  67
HETATM   67  C           0     -14.488   2.650   5.060  0.00  0.00     0.053 C 
BRANCH  67  68
HETATM   68  C           0     -15.409   3.056   3.902  0.00  0.00     0.115 C 
BRANCH  68  69
HETATM   69  C           0     -15.466   4.557   3.553  0.00  0.00     0.172 C 
HETATM   70  O           0     -15.287   4.910   2.358  0.00  0.00    -0.648 OA
HETATM   71  O           0     -15.674   5.347   4.529  0.00  0.00    -0.648 OA
ENDBRANCH  68  69
ENDBRANCH  67  68
ENDBRANCH  62  67
ENDBRANCH  60  62
ENDBRANCH  57  58
ENDBRANCH  55  57
ENDBRANCH  52  53
BRANCH  52  72
HETATM   72  C           0      -8.508  -1.201   4.510  0.00  0.00     0.038 C 
BRANCH  72  73
HETATM   73  C           0      -7.260  -0.319   4.706  0.00  0.00    -0.020 C 
HETATM   74  C           0      -6.020  -0.888   4.002  0.00  0.00     0.009 C 
HETATM   75  C           0      -7.565   1.104   4.211  0.00  0.00     0.009 C 
ENDBRANCH  72  73
ENDBRANCH  52  72
ENDBRANCH  50  52
ENDBRANCH  41  48
ENDBRANCH   1  41
TORSDOF 28
ENDMDL
MODEL 3
REMARK VINA RESULT:      -2.9      1.629      2.056
REMARK  28 active torsions:
REMARK  status: ('A' for Active; 'I' for Inactive)
REMARK       I    between atoms: C_1  and  N_3 
REMARK    1  A    between atoms: C_1  and  C_41 
REMARK    2  A    between atoms: N_3  and  C_5 
REMARK    3  A    between atoms: C_5  and  C_6 
REMARK    4  A    between atoms: C_5  and  C_18 
REMARK       I    between atoms: C_18  and  N_19 
REMARK    5  A    between atoms: C_20  and  C_25 
REMARK       I    between atoms: C_25  and  N_26 
REMARK    6  A    between atoms: N_26  and  C_29 
REMARK    7  A    between atoms: C_29  and  C_30 
REMARK    8  A    between atoms: C_29  and  C_38 
REMARK       I    between atoms: C_30  and  N_31 
REMARK    9  A    between atoms: N_31  and  C_34 
REMARK   10  A    between atoms: C_34  and  C_35 
REMARK   11  A    between atoms: C_38  and  O_39 
REMARK   12  A    between atoms: C_6  and  C_7 
REMARK   13  A    between atoms: C_7  and  C_8 
REMARK   14  A    between atoms: C_8  and  N_9 
REMARK       I    between atoms: N_9  and  C_10 
REMARK       I    between atoms: C_10  and  N_12 
REMARK   15  A    between atoms: C_41  and  C_42 
REMARK   16  A    between atoms: C_41  and  N_48 
REMARK       I    between atoms: N_48  and  C_50 
REMARK   17  A    between atoms: C_50  and  C_52 
REMARK   18  A    between atoms: C_52  and  N_53 
REMARK   19  A    between atoms: C_52  and  C_72 
REMARK       I    between atoms: N_53  and  C_55 
REMARK   20  A    between atoms: C_55  and  C_57 
REMARK   21  A    between atoms: C_57  and  N_58 
REMARK       I    between atoms: N_58  and  C_60 
REMARK   22  A    between atoms: C_60  and  C_62 
REMARK   23  A    between atoms: C_62  and  N_63 
REMARK   24  A    between atoms: C_62  and  C_67 
REMARK   25  A    between atoms: C_67  and  C_68 
REMARK   26  A    between atoms: C_68  and  C_69 
REMARK   27  A    between atoms: C_72  and  C_73 
REMARK   28  A    between atoms: C_42  and  C_43 
REMARK       I    between atoms: C_43  and  N_44 
ROOT
HETATM    1  C           0     -11.238   0.898   3.072  0.00  0.00     0.241 C 
HETATM    2  O           0     -11.703   0.667   4.193  0.00  0.00    -0.271 OA
HETATM    3  N           0     -10.730  -0.086   2.293  0.00  0.00    -0.346 N 
HETATM    4  H           0     -10.326   0.149   1.395  0.00  0.00     0.163 HD
ENDROOT
BRANCH   3   5
HETATM    5  C           0     -10.890  -1.487   2.679  0.00  0.00     0.176 C 
BRANCH   5   6
HETATM    6  C           0     -12.125  -2.120   2.016  0.00  0.00     0.036 C 
BRANCH   6   7
HETATM    7  C           0     -12.718  -3.223   2.900  0.00  0.00     0.023 C 
BRANCH   7   8
HETATM    8  C           0     -13.836  -4.026   2.234  0.00  0.00     0.138 C 
BRANCH   8   9
HETATM    9  N           0     -13.301  -5.351   1.931  0.00  0.00    -0.227 N 
HETATM   10  C           0     -13.967  -6.502   1.947  0.00  0.00     0.665 C 
HETATM   11  N           0     -15.253  -6.567   2.322  0.00  0.00    -0.235 N 
HETATM   12  N           0     -13.308  -7.610   1.561  0.00  0.00    -0.235 N 
HETATM   13  H           0     -15.783  -7.416   2.193  0.00  0.00     0.174 HD
HETATM   14  H           0     -15.771  -5.730   2.535  0.00  0.00     0.174 HD
HETATM   15  H           0     -13.675  -8.522   1.782  0.00  0.00     0.174 HD
HETATM   16  H           0     -12.301  -7.500   1.420  0.00  0.00     0.174 HD
HETATM   17  H           0     -12.300  -5.450   1.694  0.00  0.00     0.177 HD
ENDBRANCH   8   9
ENDBRANCH   7   8
ENDBRANCH   6   7
ENDBRANCH   5   6
BRANCH   5  18
HETATM   18  C           0      -9.621  -2.358   2.551  0.00  0.00     0.243 C 
HETATM   19  N           0      -8.639  -2.288   3.489  0.00  0.00    -0.337 N 
HETATM   20  C           0      -7.498  -3.217   3.410  0.00  0.00     0.179 C 
HETATM   21  C           0      -8.303  -1.130   4.346  0.00  0.00     0.127 C 
HETATM   22  C           0      -6.316  -2.451   4.067  0.00  0.00     0.037 C 
HETATM   23  C           0      -6.792  -0.991   4.131  0.00  0.00     0.022 C 
HETATM   24  O           0      -9.575  -3.157   1.611  0.00  0.00    -0.271 OA
BRANCH  20  25
HETATM   25  C           0      -7.715  -4.570   4.108  0.00  0.00     0.241 C 
HETATM   26  N           0      -8.555  -5.460   3.521  0.00  0.00    -0.344 N 
HETATM   27  H           0      -9.007  -5.223   2.641  0.00  0.00     0.163 HD
HETATM   28  O           0      -7.136  -4.790   5.175  0.00  0.00    -0.271 OA
BRANCH  26  29
HETATM   29  C           0      -8.969  -6.685   4.191  0.00  0.00     0.200 C 
BRANCH  29  30
HETATM   30  C           0      -8.120  -7.935   3.888  0.00  0.00     0.242 C 
HETATM   31  N           0      -8.075  -8.904   4.813  0.00  0.00    -0.354 N 
HETATM   32  H           0      -8.613  -8.871   5.676  0.00  0.00     0.162 HD
HETATM   33  O           0      -7.510  -7.994   2.809  0.00  0.00    -0.271 OA
BRANCH  31  34
HETATM   34  C           0      -7.354 -10.150   4.632  0.00  0.00     0.203 C 
BRANCH  34  35
HETATM   35  C           0      -8.350 -11.334   4.469  0.00  0.00     0.307 C 
HETATM   36  O           0      -9.575 -11.036   4.467  0.00  0.00    -0.186 OA
HETATM   37  O           0      -7.819 -12.465   4.355  0.00  0.00    -0.186 OA
ENDBRANCH  34  35
ENDBRANCH  31  34
ENDBRANCH  29  30
BRANCH  29  38
HETATM   38  C           0     -10.455  -6.995   3.911  0.00  0.00     0.199 C 
BRANCH  38  39
HETATM   39  O           0     -10.698  -7.336   2.559  0.00  0.00    -0.398 OA
HETATM   40  H           0     -10.424  -6.604   1.980  0.00  0.00     0.209 HD
ENDBRANCH  38  39
ENDBRANCH  29  38
ENDBRANCH  26  29
ENDBRANCH  20  25
ENDBRANCH   5  18
ENDBRANCH   3   5
BRANCH   1  41
HETATM   41  C           0     -11.257   2.322   2.477  0.00  0.00     0.185 C 
BRANCH  41  42
HETATM   42  C           0     -10.717   3.379   3.460  0.00  0.00     0.137 C 
BRANCH  42  43
HETATM   43  C           0      -9.270   3.165   3.903  0.00  0.00     0.217 C 
HETATM   44  N           0      -8.839   4.049   4.828  0.00  0.00    -0.370 N 
HETATM   45  H           0      -7.861   4.018   5.079  0.00  0.00     0.159 HD
HETATM   46  H           0      -9.413   4.838   5.151  0.00  0.00     0.159 HD
HETATM   47  O           0      -8.563   2.278   3.416  0.00  0.00    -0.274 OA
ENDBRANCH  42  43
ENDBRANCH  41  42
BRANCH  41  48
HETATM   48  N           0     -12.599   2.738   2.088  0.00  0.00    -0.346 N 
HETATM   49  H           0     -12.871   2.630   1.119  0.00  0.00     0.163 HD
HETATM   50  C           0     -13.466   3.346   2.923  0.00  0.00     0.241 C 
HETATM   51  O           0     -13.193   3.630   4.096  0.00  0.00    -0.271 OA
BRANCH  50  52
HETATM   52  C           0     -14.864   3.657   2.356  0.00  0.00     0.177 C 
BRANCH  52  53
HETATM   53  N           0     -15.500   2.482   1.768  0.00  0.00    -0.346 N 
HETATM   54  H           0     -15.895   2.555   0.838  0.00  0.00     0.163 HD
HETATM   55  C           0     -15.466   1.266   2.376  0.00  0.00     0.236 C 
HETATM   56  O           0     -14.905   1.070   3.450  0.00  0.00    -0.272 OA
BRANCH  55  57
HETATM   57  C           0     -16.153   0.110   1.636  0.00  0.00     0.225 C 
BRANCH  57  58
HETATM   58  N           0     -17.592   0.016   1.874  0.00  0.00    -0.351 N 
HETATM   59  H           0     -18.180   0.708   1.432  0.00  0.00     0.163 HD
HETATM   60  C           0     -18.106  -1.118   2.408  0.00  0.00     0.248 C 
HETATM   61  O           0     -17.376  -2.042   2.783  0.00  0.00    -0.271 OA
BRANCH  60  62
HETATM   62  C           0     -19.619  -1.275   2.593  0.00  0.00     0.275 C 
BRANCH  62  63
HETATM   63  N           0     -20.039  -2.709   2.871  0.00  0.00    -0.066 N 
HETATM   64  H           0     -19.926  -3.318   2.054  0.00  0.00     0.275 HD
HETATM   65  H           0     -19.544  -3.139   3.659  0.00  0.00     0.275 HD
HETATM   66  H           0     -21.035  -2.731   3.117  0.00  0.00     0.275 HD
ENDBRANCH  62  63
BRANCH  62  67
HETATM   67  C           0     -20.237  -0.359   3.661  0.00  0.00     0.053 C 
BRANCH  67  68
HETATM   68  C           0     -21.111  -1.086   4.691  0.00  0.00     0.115 C 
BRANCH  68  69
HETATM   69  C           0     -22.635  -1.043   4.462  0.00  0.00     0.172 C 
HETATM   70  O           0     -23.361  -0.460   5.310  0.00  0.00    -0.648 OA
HETATM   71  O           0     -23.057  -1.633   3.415  0.00  0.00    -0.648 OA
ENDBRANCH  68  69
ENDBRANCH  67  68
ENDBRANCH  62  67
ENDBRANCH  60  62
ENDBRANCH  57  58
ENDBRANCH  55  57
ENDBRANCH  52  53
BRANCH  52  72
HETATM   72  C           0     -15.800   4.249   3.435  0.00  0.00     0.038 C 
BRANCH  72  73
HETATM   73  C           0     -17.314   4.054   3.230  0.00  0.00    -0.020 C 
HETATM   74  C           0     -18.071   3.882   4.555  0.00  0.00     0.009 C 
HETATM   75  C           0     -17.873   5.242   2.431  0.00  0.00     0.009 C 
ENDBRANCH  72  73
ENDBRANCH  52  72
ENDBRANCH  50  52
ENDBRANCH  41  48
ENDBRANCH   1  41
TORSDOF 28
ENDMDL
MODEL 4
REMARK VINA RESULT:      -2.5      9.794     17.315
REMARK  28 active torsions:
REMARK  status: ('A' for Active; 'I' for Inactive)
REMARK       I    between atoms: C_1  and  N_3 
REMARK    1  A    between atoms: C_1  and  C_41 
REMARK    2  A    between atoms: N_3  and  C_5 
REMARK    3  A    between atoms: C_5  and  C_6 
REMARK    4  A    between atoms: C_5  and  C_18 
REMARK       I    between atoms: C_18  and  N_19 
REMARK    5  A    between atoms: C_20  and  C_25 
REMARK       I    between atoms: C_25  and  N_26 
REMARK    6  A    between atoms: N_26  and  C_29 
REMARK    7  A    between atoms: C_29  and  C_30 
REMARK    8  A    between atoms: C_29  and  C_38 
REMARK       I    between atoms: C_30  and  N_31 
REMARK    9  A    between atoms: N_31  and  C_34 
REMARK   10  A    between atoms: C_34  and  C_35 
REMARK   11  A    between atoms: C_38  and  O_39 
REMARK   12  A    between atoms: C_6  and  C_7 
REMARK   13  A    between atoms: C_7  and  C_8 
REMARK   14  A    between atoms: C_8  and  N_9 
REMARK       I    between atoms: N_9  and  C_10 
REMARK       I    between atoms: C_10  and  N_12 
REMARK   15  A    between atoms: C_41  and  C_42 
REMARK   16  A    between atoms: C_41  and  N_48 
REMARK       I    between atoms: N_48  and  C_50 
REMARK   17  A    between atoms: C_50  and  C_52 
REMARK   18  A    between atoms: C_52  and  N_53 
REMARK   19  A    between atoms: C_52  and  C_72 
REMARK       I    between atoms: N_53  and  C_55 
REMARK   20  A    between atoms: C_55  and  C_57 
REMARK   21  A    between atoms: C_57  and  N_58 
REMARK       I    between atoms: N_58  and  C_60 
REMARK   22  A    between atoms: C_60  and  C_62 
REMARK   23  A    between atoms: C_62  and  N_63 
REMARK   24  A    between atoms: C_62  and  C_67 
REMARK   25  A    between atoms: C_67  and  C_68 
REMARK   26  A    between atoms: C_68  and  C_69 
REMARK   27  A    between atoms: C_72  and  C_73 
REMARK   28  A    between atoms: C_42  and  C_43 
REMARK       I    between atoms: C_43  and  N_44 
ROOT
HETATM    1  C           0      -9.175 -18.005   4.117  0.00  0.00     0.241 C 
HETATM    2  O           0      -9.798 -18.665   4.957  0.00  0.00    -0.271 OA
HETATM    3  N           0      -8.289 -18.582   3.271  0.00  0.00    -0.346 N 
HETATM    4  H           0      -7.772 -18.003   2.621  0.00  0.00     0.163 HD
ENDROOT
BRANCH   3   5
HETATM    5  C           0      -8.182 -20.038   3.197  0.00  0.00     0.176 C 
BRANCH   5   6
HETATM    6  C           0      -7.818 -20.651   4.560  0.00  0.00     0.036 C 
BRANCH   6   7
HETATM    7  C           0      -6.321 -20.494   4.850  0.00  0.00     0.023 C 
BRANCH   7   8
HETATM    8  C           0      -5.417 -21.336   3.951  0.00  0.00     0.138 C 
BRANCH   8   9
HETATM    9  N           0      -4.063 -21.258   4.494  0.00  0.00    -0.227 N 
HETATM   10  C           0      -2.964 -21.796   3.975  0.00  0.00     0.665 C 
HETATM   11  N           0      -3.004 -22.555   2.871  0.00  0.00    -0.235 N 
HETATM   12  N           0      -1.795 -21.544   4.593  0.00  0.00    -0.235 N 
HETATM   13  H           0      -2.152 -22.836   2.410  0.00  0.00     0.174 HD
HETATM   14  H           0      -3.864 -22.681   2.363  0.00  0.00     0.174 HD
HETATM   15  H           0      -0.984 -22.110   4.395  0.00  0.00     0.174 HD
HETATM   16  H           0      -1.863 -21.072   5.497  0.00  0.00     0.174 HD
HETATM   17  H           0      -3.904 -20.757   5.385  0.00  0.00     0.177 HD
ENDBRANCH   8   9
ENDBRANCH   7   8
ENDBRANCH   6   7
ENDBRANCH   5   6
BRANCH   5  18
HETATM   18  C           0      -9.365 -20.754   2.508  0.00  0.00     0.243 C 
HETATM   19  N           0      -9.478 -22.109   2.563  0.00  0.00    -0.337 N 
HETATM   20  C           0     -10.678 -22.756   2.006  0.00  0.00     0.179 C 
HETATM   21  C           0      -8.382 -23.092   2.707  0.00  0.00     0.127 C 
HETATM   22  C           0     -10.199 -24.166   1.560  0.00  0.00     0.037 C 
HETATM   23  C           0      -8.665 -24.069   1.561  0.00  0.00     0.022 C 
HETATM   24  O           0     -10.224 -20.045   1.976  0.00  0.00    -0.271 OA
BRANCH  20  25
HETATM   25  C           0     -11.863 -22.874   2.981  0.00  0.00     0.241 C 
HETATM   26  N           0     -13.106 -22.613   2.503  0.00  0.00    -0.344 N 
HETATM   27  H           0     -13.229 -22.361   1.526  0.00  0.00     0.163 HD
HETATM   28  O           0     -11.640 -23.183   4.154  0.00  0.00    -0.271 OA
BRANCH  26  29
HETATM   29  C           0     -14.262 -22.516   3.382  0.00  0.00     0.200 C 
BRANCH  29  30
HETATM   30  C           0     -15.234 -23.712   3.347  0.00  0.00     0.242 C 
HETATM   31  N           0     -14.998 -24.689   2.461  0.00  0.00    -0.354 N 
HETATM   32  H           0     -14.183 -24.699   1.852  0.00  0.00     0.162 HD
HETATM   33  O           0     -16.195 -23.721   4.132  0.00  0.00    -0.271 OA
BRANCH  31  34
HETATM   34  C           0     -15.807 -25.890   2.359  0.00  0.00     0.203 C 
BRANCH  34  35
HETATM   35  C           0     -14.898 -27.147   2.239  0.00  0.00     0.307 C 
HETATM   36  O           0     -13.682 -26.986   2.532  0.00  0.00    -0.186 OA
HETATM   37  O           0     -15.481 -28.192   1.862  0.00  0.00    -0.186 OA
ENDBRANCH  34  35
ENDBRANCH  31  34
ENDBRANCH  29  30
BRANCH  29  38
HETATM   38  C           0     -15.046 -21.211   3.125  0.00  0.00     0.199 C 
BRANCH  38  39
HETATM   39  O           0     -15.826 -20.812   4.237  0.00  0.00    -0.398 OA
HETATM   40  H           0     -15.545 -21.301   5.029  0.00  0.00     0.209 HD
ENDBRANCH  38  39
ENDBRANCH  29  38
ENDBRANCH  26  29
ENDBRANCH  20  25
ENDBRANCH   5  18
ENDBRANCH   3   5
BRANCH   1  41
HETATM   41  C           0      -9.412 -16.489   3.955  0.00  0.00     0.185 C 
BRANCH  41  42
HETATM   42  C           0      -8.504 -15.649   4.874  0.00  0.00     0.137 C 
BRANCH  42  43
HETATM   43  C           0      -7.986 -14.352   4.253  0.00  0.00     0.217 C 
HETATM   44  N           0      -8.955 -13.558   3.746  0.00  0.00    -0.370 N 
HETATM   45  H           0      -8.660 -12.739   3.232  0.00  0.00     0.159 HD
HETATM   46  H           0      -9.943 -13.837   3.717  0.00  0.00     0.159 HD
HETATM   47  O           0      -6.782 -14.090   4.196  0.00  0.00    -0.274 OA
ENDBRANCH  42  43
ENDBRANCH  41  42
BRANCH  41  48
HETATM   48  N           0     -10.790 -16.114   4.248  0.00  0.00    -0.346 N 
HETATM   49  H           0     -11.082 -16.081   5.216  0.00  0.00     0.163 HD
HETATM   50  C           0     -11.725 -15.900   3.300  0.00  0.00     0.241 C 
HETATM   51  O           0     -11.505 -16.027   2.089  0.00  0.00    -0.271 OA
BRANCH  50  52
HETATM   52  C           0     -13.114 -15.449   3.792  0.00  0.00     0.177 C 
BRANCH  52  53
HETATM   53  N           0     -13.050 -14.239   4.606  0.00  0.00    -0.346 N 
HETATM   54  H           0     -13.353 -14.284   5.571  0.00  0.00     0.163 HD
HETATM   55  C           0     -12.480 -13.093   4.146  0.00  0.00     0.236 C 
HETATM   56  O           0     -11.983 -12.994   3.027  0.00  0.00    -0.272 OA
BRANCH  55  57
HETATM   57  C           0     -12.457 -11.903   5.115  0.00  0.00     0.225 C 
BRANCH  57  58
HETATM   58  N           0     -11.915 -10.672   4.542  0.00  0.00    -0.351 N 
HETATM   59  H           0     -12.578  -9.986   4.210  0.00  0.00     0.163 HD
HETATM   60  C           0     -10.610 -10.367   4.735  0.00  0.00     0.248 C 
HETATM   61  O           0      -9.843 -11.147   5.308  0.00  0.00    -0.271 OA
BRANCH  60  62
HETATM   62  C           0     -10.034  -9.044   4.215  0.00  0.00     0.275 C 
BRANCH  62  63
HETATM   63  N           0     -11.062  -7.926   4.167  0.00  0.00    -0.066 N 
HETATM   64  H           0     -12.016  -8.260   4.337  0.00  0.00     0.275 HD
HETATM   65  H           0     -10.872  -7.161   4.822  0.00  0.00     0.275 HD
HETATM   66  H           0     -11.062  -7.504   3.232  0.00  0.00     0.275 HD
ENDBRANCH  62  63
BRANCH  62  67
HETATM   67  C           0      -8.789  -8.545   4.965  0.00  0.00     0.053 C 
BRANCH  67  68
HETATM   68  C           0      -8.453  -7.068   4.721  0.00  0.00     0.115 C 
BRANCH  68  69
HETATM   69  C           0      -7.955  -6.693   3.312  0.00  0.00     0.172 C 
HETATM   70  O           0      -8.788  -6.622   2.371  0.00  0.00    -0.648 OA
HETATM   71  O           0      -6.701  -6.497   3.199  0.00  0.00    -0.648 OA
ENDBRANCH  68  69
ENDBRANCH  67  68
ENDBRANCH  62  67
ENDBRANCH  60  62
ENDBRANCH  57  58
ENDBRANCH  55  57
ENDBRANCH  52  53
BRANCH  52  72
HETATM   72  C           0     -14.088 -15.214   2.615  0.00  0.00     0.038 C 
BRANCH  72  73
HETATM   73  C           0     -15.534 -15.717   2.794  0.00  0.00    -0.020 C 
HETATM   74  C           0     -15.638 -16.857   3.817  0.00  0.00     0.009 C 
HETATM   75  C           0     -16.432 -14.536   3.197  0.00  0.00     0.009 C 
ENDBRANCH  72  73
ENDBRANCH  52  72
ENDBRANCH  50  52
ENDBRANCH  41  48
ENDBRANCH   1  41
TORSDOF 28
ENDMDL
MODEL 5
REMARK VINA RESULT:      -2.5     26.595     32.079
REMARK  28 active torsions:
REMARK  status: ('A' for Active; 'I' for Inactive)
REMARK       I    between atoms: C_1  and  N_3 
REMARK    1  A    between atoms: C_1  and  C_41 
REMARK    2  A    between atoms: N_3  and  C_5 
REMARK    3  A    between atoms: C_5  and  C_6 
REMARK    4  A    between atoms: C_5  and  C_18 
REMARK       I    between atoms: C_18  and  N_19 
REMARK    5  A    between atoms: C_20  and  C_25 
REMARK       I    between atoms: C_25  and  N_26 
REMARK    6  A    between atoms: N_26  and  C_29 
REMARK    7  A    between atoms: C_29  and  C_30 
REMARK    8  A    between atoms: C_29  and  C_38 
REMARK       I    between atoms: C_30  and  N_31 
REMARK    9  A    between atoms: N_31  and  C_34 
REMARK   10  A    between atoms: C_34  and  C_35 
REMARK   11  A    between atoms: C_38  and  O_39 
REMARK   12  A    between atoms: C_6  and  C_7 
REMARK   13  A    between atoms: C_7  and  C_8 
REMARK   14  A    between atoms: C_8  and  N_9 
REMARK       I    between atoms: N_9  and  C_10 
REMARK       I    between atoms: C_10  and  N_12 
REMARK   15  A    between atoms: C_41  and  C_42 
REMARK   16  A    between atoms: C_41  and  N_48 
REMARK       I    between atoms: N_48  and  C_50 
REMARK   17  A    between atoms: C_50  and  C_52 
REMARK   18  A    between atoms: C_52  and  N_53 
REMARK   19  A    between atoms: C_52  and  C_72 
REMARK       I    between atoms: N_53  and  C_55 
REMARK   20  A    between atoms: C_55  and  C_57 
REMARK   21  A    between atoms: C_57  and  N_58 
REMARK       I    between atoms: N_58  and  C_60 
REMARK   22  A    between atoms: C_60  and  C_62 
REMARK   23  A    between atoms: C_62  and  N_63 
REMARK   24  A    between atoms: C_62  and  C_67 
REMARK   25  A    between atoms: C_67  and  C_68 
REMARK   26  A    between atoms: C_68  and  C_69 
REMARK   27  A    between atoms: C_72  and  C_73 
REMARK   28  A    between atoms: C_42  and  C_43 
REMARK       I    between atoms: C_43  and  N_44 
ROOT
HETATM    1  C           0      17.317   6.058   3.315  0.00  0.00     0.241 C 
HETATM    2  O           0      17.684   5.717   4.445  0.00  0.00    -0.271 OA
HETATM    3  N           0      16.260   5.474   2.703  0.00  0.00    -0.346 N 
HETATM    4  H           0      16.012   5.756   1.762  0.00  0.00     0.163 HD
ENDROOT
BRANCH   3   5
HETATM    5  C           0      15.399   4.551   3.440  0.00  0.00     0.176 C 
BRANCH   5   6
HETATM    6  C           0      14.232   5.285   4.121  0.00  0.00     0.036 C 
BRANCH   6   7
HETATM    7  C           0      13.775   6.486   3.285  0.00  0.00     0.023 C 
BRANCH   7   8
HETATM    8  C           0      13.145   7.614   4.101  0.00  0.00     0.138 C 
BRANCH   8   9
HETATM    9  N           0      14.092   8.725   4.118  0.00  0.00    -0.227 N 
HETATM   10  C           0      13.805  10.016   4.261  0.00  0.00     0.665 C 
HETATM   11  N           0      12.540  10.451   4.352  0.00  0.00    -0.235 N 
HETATM   12  N           0      14.834  10.881   4.325  0.00  0.00    -0.235 N 
HETATM   13  H           0      12.343  11.408   4.603  0.00  0.00     0.174 HD
HETATM   14  H           0      11.772   9.800   4.384  0.00  0.00     0.174 HD
HETATM   15  H           0      14.677  11.867   4.189  0.00  0.00     0.174 HD
HETATM   16  H           0      15.755  10.490   4.115  0.00  0.00     0.174 HD
HETATM   17  H           0      15.100   8.533   3.986  0.00  0.00     0.177 HD
ENDBRANCH   8   9
ENDBRANCH   7   8
ENDBRANCH   6   7
ENDBRANCH   5   6
BRANCH   5  18
HETATM   18  C           0      14.950   3.297   2.658  0.00  0.00     0.243 C 
HETATM   19  N           0      15.537   2.092   2.891  0.00  0.00    -0.337 N 
HETATM   20  C           0      15.007   0.890   2.223  0.00  0.00     0.179 C 
HETATM   21  C           0      16.910   1.847   3.381  0.00  0.00     0.127 C 
HETATM   22  C           0      16.229  -0.061   2.089  0.00  0.00     0.037 C 
HETATM   23  C           0      17.446   0.837   2.360  0.00  0.00     0.022 C 
HETATM   24  O           0      14.004   3.426   1.876  0.00  0.00    -0.271 OA
BRANCH  20  25
HETATM   25  C           0      13.858   0.188   2.968  0.00  0.00     0.241 C 
HETATM   26  N           0      14.086  -0.228   4.239  0.00  0.00    -0.344 N 
HETATM   27  H           0      14.992  -0.061   4.671  0.00  0.00     0.163 HD
HETATM   28  O           0      12.786   0.017   2.382  0.00  0.00    -0.271 OA
BRANCH  26  29
HETATM   29  C           0      13.133  -1.061   4.958  0.00  0.00     0.200 C 
BRANCH  29  30
HETATM   30  C           0      12.787  -2.409   4.295  0.00  0.00     0.242 C 
HETATM   31  N           0      13.587  -2.853   3.316  0.00  0.00    -0.354 N 
HETATM   32  H           0      14.434  -2.367   3.030  0.00  0.00     0.162 HD
HETATM   33  O           0      11.783  -3.025   4.687  0.00  0.00    -0.271 OA
BRANCH  31  34
HETATM   34  C           0      13.401  -4.126   2.645  0.00  0.00     0.203 C 
BRANCH  34  35
HETATM   35  C           0      14.494  -5.139   3.091  0.00  0.00     0.307 C 
HETATM   36  O           0      14.920  -5.016   4.271  0.00  0.00    -0.186 OA
HETATM   37  O           0      14.834  -5.974   2.219  0.00  0.00    -0.186 OA
ENDBRANCH  34  35
ENDBRANCH  31  34
ENDBRANCH  29  30
BRANCH  29  38
HETATM   38  C           0      11.831  -0.286   5.253  0.00  0.00     0.199 C 
BRANCH  38  39
HETATM   39  O           0      10.817  -0.534   4.297  0.00  0.00    -0.398 OA
HETATM   40  H           0      10.977  -1.388   3.861  0.00  0.00     0.209 HD
ENDBRANCH  38  39
ENDBRANCH  29  38
ENDBRANCH  26  29
ENDBRANCH  20  25
ENDBRANCH   5  18
ENDBRANCH   3   5
BRANCH   1  41
HETATM   41  C           0      18.019   7.205   2.559  0.00  0.00     0.185 C 
BRANCH  41  42
HETATM   42  C           0      19.087   6.695   1.572  0.00  0.00     0.137 C 
BRANCH  42  43
HETATM   43  C           0      20.274   5.986   2.222  0.00  0.00     0.217 C 
HETATM   44  N           0      20.309   4.654   2.003  0.00  0.00    -0.370 N 
HETATM   45  H           0      21.013   4.121   2.495  0.00  0.00     0.159 HD
HETATM   46  H           0      19.563   4.154   1.503  0.00  0.00     0.159 HD
HETATM   47  O           0      21.098   6.591   2.914  0.00  0.00    -0.274 OA
ENDBRANCH  42  43
ENDBRANCH  41  42
BRANCH  41  48
HETATM   48  N           0      18.676   8.139   3.465  0.00  0.00    -0.346 N 
HETATM   49  H           0      19.477   7.813   3.990  0.00  0.00     0.163 HD
HETATM   50  C           0      18.223   9.384   3.716  0.00  0.00     0.241 C 
HETATM   51  O           0      17.188   9.843   3.217  0.00  0.00    -0.271 OA
BRANCH  50  52
HETATM   52  C           0      19.082  10.254   4.653  0.00  0.00     0.177 C 
BRANCH  52  53
HETATM   53  N           0      20.355  10.633   4.048  0.00  0.00    -0.346 N 
HETATM   54  H           0      20.373  11.403   3.391  0.00  0.00     0.163 HD
HETATM   55  C           0      21.531  10.069   4.434  0.00  0.00     0.236 C 
HETATM   56  O           0      21.606   9.210   5.310  0.00  0.00    -0.272 OA
BRANCH  55  57
HETATM   57  C           0      22.798  10.578   3.734  0.00  0.00     0.225 C 
BRANCH  57  58
HETATM   58  N           0      23.416  11.735   4.378  0.00  0.00    -0.351 N 
HETATM   59  H           0      24.043  11.555   5.149  0.00  0.00     0.163 HD
HETATM   60  C           0      23.371  12.941   3.763  0.00  0.00     0.248 C 
HETATM   61  O           0      22.742  13.107   2.713  0.00  0.00    -0.271 OA
BRANCH  60  62
HETATM   62  C           0      24.081  14.154   4.376  0.00  0.00     0.275 C 
BRANCH  62  63
HETATM   63  N           0      25.083  14.797   3.432  0.00  0.00    -0.066 N 
HETATM   64  H           0      26.012  14.365   3.491  0.00  0.00     0.275 HD
HETATM   65  H           0      24.791  14.789   2.450  0.00  0.00     0.275 HD
HETATM   66  H           0      25.203  15.784   3.683  0.00  0.00     0.275 HD
ENDBRANCH  62  63
BRANCH  62  67
HETATM   67  C           0      23.142  15.242   4.922  0.00  0.00     0.053 C 
BRANCH  67  68
HETATM   68  C           0      22.473  16.101   3.842  0.00  0.00     0.115 C 
BRANCH  68  69
HETATM   69  C           0      21.160  16.809   4.231  0.00  0.00     0.172 C 
HETATM   70  O           0      20.724  17.732   3.494  0.00  0.00    -0.648 OA
HETATM   71  O           0      20.612  16.411   5.310  0.00  0.00    -0.648 OA
ENDBRANCH  68  69
ENDBRANCH  67  68
ENDBRANCH  62  67
ENDBRANCH  60  62
ENDBRANCH  57  58
ENDBRANCH  55  57
ENDBRANCH  52  53
BRANCH  52  72
HETATM   72  C           0      18.332  11.533   5.093  0.00  0.00     0.038 C 
BRANCH  72  73
HETATM   73  C           0      18.185  12.652   4.045  0.00  0.00    -0.020 C 
HETATM   74  C           0      16.998  13.581   4.337  0.00  0.00     0.009 C 
HETATM   75  C           0      19.498  13.449   3.970  0.00  0.00     0.009 C 
ENDBRANCH  72  73
ENDBRANCH  52  72
ENDBRANCH  50  52
ENDBRANCH  41  48
ENDBRANCH   1  41
TORSDOF 28
ENDMDL
MODEL 6
REMARK VINA RESULT:      -2.5      2.909      8.608
REMARK  28 active torsions:
REMARK  status: ('A' for Active; 'I' for Inactive)
REMARK       I    between atoms: C_1  and  N_3 
REMARK    1  A    between atoms: C_1  and  C_41 
REMARK    2  A    between atoms: N_3  and  C_5 
REMARK    3  A    between atoms: C_5  and  C_6 
REMARK    4  A    between atoms: C_5  and  C_18 
REMARK       I    between atoms: C_18  and  N_19 
REMARK    5  A    between atoms: C_20  and  C_25 
REMARK       I    between atoms: C_25  and  N_26 
REMARK    6  A    between atoms: N_26  and  C_29 
REMARK    7  A    between atoms: C_29  and  C_30 
REMARK    8  A    between atoms: C_29  and  C_38 
REMARK       I    between atoms: C_30  and  N_31 
REMARK    9  A    between atoms: N_31  and  C_34 
REMARK   10  A    between atoms: C_34  and  C_35 
REMARK   11  A    between atoms: C_38  and  O_39 
REMARK   12  A    between atoms: C_6  and  C_7 
REMARK   13  A    between atoms: C_7  and  C_8 
REMARK   14  A    between atoms: C_8  and  N_9 
REMARK       I    between atoms: N_9  and  C_10 
REMARK       I    between atoms: C_10  and  N_12 
REMARK   15  A    between atoms: C_41  and  C_42 
REMARK   16  A    between atoms: C_41  and  N_48 
REMARK       I    between atoms: N_48  and  C_50 
REMARK   17  A    between atoms: C_50  and  C_52 
REMARK   18  A    between atoms: C_52  and  N_53 
REMARK   19  A    between atoms: C_52  and  C_72 
REMARK       I    between atoms: N_53  and  C_55 
REMARK   20  A    between atoms: C_55  and  C_57 
REMARK   21  A    between atoms: C_57  and  N_58 
REMARK       I    between atoms: N_58  and  C_60 
REMARK   22  A    between atoms: C_60  and  C_62 
REMARK   23  A    between atoms: C_62  and  N_63 
REMARK   24  A    between atoms: C_62  and  C_67 
REMARK   25  A    between atoms: C_67  and  C_68 
REMARK   26  A    between atoms: C_68  and  C_69 
REMARK   27  A    between atoms: C_72  and  C_73 
REMARK   28  A    between atoms: C_42  and  C_43 
REMARK       I    between atoms: C_43  and  N_44 
ROOT
HETATM    1  C           0      -9.911  -5.840   3.793  0.00  0.00     0.241 C 
HETATM    2  O           0     -10.878  -5.495   4.481  0.00  0.00    -0.271 OA
HETATM    3  N           0      -9.840  -7.069   3.230  0.00  0.00    -0.346 N 
HETATM    4  H           0      -9.014  -7.327   2.703  0.00  0.00     0.163 HD
ENDROOT
BRANCH   3   5
HETATM    5  C           0     -10.996  -7.962   3.260  0.00  0.00     0.176 C 
BRANCH   5   6
HETATM    6  C           0     -11.366  -8.364   4.698  0.00  0.00     0.036 C 
BRANCH   6   7
HETATM    7  C           0     -10.289  -9.267   5.310  0.00  0.00     0.023 C 
BRANCH   7   8
HETATM    8  C           0      -9.883 -10.446   4.425  0.00  0.00     0.138 C 
BRANCH   8   9
HETATM    9  N           0      -8.533 -10.843   4.817  0.00  0.00    -0.227 N 
HETATM   10  C           0      -7.399 -10.219   4.513  0.00  0.00     0.665 C 
HETATM   11  N           0      -7.380  -9.136   3.723  0.00  0.00    -0.235 N 
HETATM   12  N           0      -6.259 -10.707   5.036  0.00  0.00    -0.235 N 
HETATM   13  H           0      -6.537  -8.592   3.618  0.00  0.00     0.174 HD
HETATM   14  H           0      -8.238  -8.722   3.395  0.00  0.00     0.174 HD
HETATM   15  H           0      -5.367 -10.434   4.654  0.00  0.00     0.174 HD
HETATM   16  H           0      -6.340 -11.607   5.515  0.00  0.00     0.174 HD
HETATM   17  H           0      -8.401 -11.705   5.372  0.00  0.00     0.177 HD
ENDBRANCH   8   9
ENDBRANCH   7   8
ENDBRANCH   6   7
ENDBRANCH   5   6
BRANCH   5  18
HETATM   18  C           0     -12.213  -7.497   2.430  0.00  0.00     0.243 C 
HETATM   19  N           0     -13.437  -8.060   2.624  0.00  0.00    -0.337 N 
HETATM   20  C           0     -14.603  -7.514   1.909  0.00  0.00     0.179 C 
HETATM   21  C           0     -13.724  -9.425   3.113  0.00  0.00     0.127 C 
HETATM   22  C           0     -15.571  -8.719   1.749  0.00  0.00     0.037 C 
HETATM   23  C           0     -14.706  -9.951   2.060  0.00  0.00     0.022 C 
HETATM   24  O           0     -12.039  -6.559   1.647  0.00  0.00    -0.271 OA
BRANCH  20  25
HETATM   25  C           0     -15.311  -6.347   2.620  0.00  0.00     0.241 C 
HETATM   26  N           0     -16.667  -6.310   2.583  0.00  0.00    -0.344 N 
HETATM   27  H           0     -17.179  -7.047   2.104  0.00  0.00     0.163 HD
HETATM   28  O           0     -14.626  -5.487   3.179  0.00  0.00    -0.271 OA
BRANCH  26  29
HETATM   29  C           0     -17.418  -5.158   3.061  0.00  0.00     0.200 C 
BRANCH  29  30
HETATM   30  C           0     -18.740  -5.474   3.788  0.00  0.00     0.242 C 
HETATM   31  N           0     -19.288  -4.512   4.544  0.00  0.00    -0.354 N 
HETATM   32  H           0     -18.897  -3.575   4.615  0.00  0.00     0.162 HD
HETATM   33  O           0     -19.240  -6.601   3.651  0.00  0.00    -0.271 OA
BRANCH  31  34
HETATM   34  C           0     -20.552  -4.663   5.239  0.00  0.00     0.203 C 
BRANCH  34  35
HETATM   35  C           0     -21.645  -3.776   4.577  0.00  0.00     0.307 C 
HETATM   36  O           0     -22.761  -3.738   5.161  0.00  0.00    -0.186 OA
HETATM   37  O           0     -21.291  -3.191   3.525  0.00  0.00    -0.186 OA
ENDBRANCH  34  35
ENDBRANCH  31  34
ENDBRANCH  29  30
BRANCH  29  38
HETATM   38  C           0     -17.689  -4.159   1.916  0.00  0.00     0.199 C 
BRANCH  38  39
HETATM   39  O           0     -18.480  -3.059   2.324  0.00  0.00    -0.398 OA
HETATM   40  H           0     -18.433  -2.959   3.290  0.00  0.00     0.209 HD
ENDBRANCH  38  39
ENDBRANCH  29  38
ENDBRANCH  26  29
ENDBRANCH  20  25
ENDBRANCH   5  18
ENDBRANCH   3   5
BRANCH   1  41
HETATM   41  C           0      -8.751  -4.866   3.499  0.00  0.00     0.185 C 
BRANCH  41  42
HETATM   42  C           0      -7.535  -5.103   4.415  0.00  0.00     0.137 C 
BRANCH  42  43
HETATM   43  C           0      -6.177  -4.947   3.732  0.00  0.00     0.217 C 
HETATM   44  N           0      -5.681  -6.094   3.220  0.00  0.00    -0.370 N 
HETATM   45  H           0      -4.741  -6.069   2.850  0.00  0.00     0.159 HD
HETATM   46  H           0      -6.145  -7.003   3.343  0.00  0.00     0.159 HD
HETATM   47  O           0      -5.584  -3.865   3.696  0.00  0.00    -0.274 OA
ENDBRANCH  42  43
ENDBRANCH  41  42
BRANCH  41  48
HETATM   48  N           0      -9.149  -3.473   3.660  0.00  0.00    -0.346 N 
HETATM   49  H           0      -9.606  -3.202   4.521  0.00  0.00     0.163 HD
HETATM   50  C           0      -9.030  -2.543   2.690  0.00  0.00     0.241 C 
HETATM   51  O           0      -8.593  -2.794   1.560  0.00  0.00    -0.271 OA
BRANCH  50  52
HETATM   52  C           0      -9.444  -1.106   3.059  0.00  0.00     0.177 C 
BRANCH  52  53
HETATM   53  N           0     -10.721  -0.725   2.465  0.00  0.00    -0.346 N 
HETATM   54  H           0     -10.800   0.178   2.014  0.00  0.00     0.163 HD
HETATM   55  C           0     -11.766  -1.592   2.390  0.00  0.00     0.236 C 
HETATM   56  O           0     -11.711  -2.745   2.809  0.00  0.00    -0.272 OA
BRANCH  55  57
HETATM   57  C           0     -13.044  -1.070   1.718  0.00  0.00     0.225 C 
BRANCH  57  58
HETATM   58  N           0     -14.190  -0.955   2.617  0.00  0.00    -0.351 N 
HETATM   59  H           0     -14.477  -1.789   3.108  0.00  0.00     0.163 HD
HETATM   60  C           0     -14.630   0.273   2.981  0.00  0.00     0.248 C 
HETATM   61  O           0     -14.142   1.301   2.500  0.00  0.00    -0.271 OA
BRANCH  60  62
HETATM   62  C           0     -15.778   0.423   3.986  0.00  0.00     0.275 C 
BRANCH  62  63
HETATM   63  N           0     -15.891   1.827   4.556  0.00  0.00    -0.066 N 
HETATM   64  H           0     -15.102   2.426   4.287  0.00  0.00     0.275 HD
HETATM   65  H           0     -16.758   2.309   4.299  0.00  0.00     0.275 HD
HETATM   66  H           0     -15.886   1.780   5.580  0.00  0.00     0.275 HD
ENDBRANCH  62  63
BRANCH  62  67
HETATM   67  C           0     -17.155  -0.014   3.461  0.00  0.00     0.053 C 
BRANCH  67  68
HETATM   68  C           0     -17.588   0.681   2.164  0.00  0.00     0.115 C 
BRANCH  68  69
HETATM   69  C           0     -18.848   1.566   2.237  0.00  0.00     0.172 C 
HETATM   70  O           0     -19.899   1.176   1.665  0.00  0.00    -0.648 OA
HETATM   71  O           0     -18.721   2.663   2.871  0.00  0.00    -0.648 OA
ENDBRANCH  68  69
ENDBRANCH  67  68
ENDBRANCH  62  67
ENDBRANCH  60  62
ENDBRANCH  57  58
ENDBRANCH  55  57
ENDBRANCH  52  53
BRANCH  52  72
HETATM   72  C           0      -9.521  -0.909   4.591  0.00  0.00     0.038 C 
BRANCH  72  73
HETATM   73  C           0      -8.404  -0.074   5.245  0.00  0.00    -0.020 C 
HETATM   74  C           0      -7.046  -0.791   5.230  0.00  0.00     0.009 C 
HETATM   75  C           0      -8.312   1.287   4.537  0.00  0.00     0.009 C 
ENDBRANCH  72  73
ENDBRANCH  52  72
ENDBRANCH  50  52
ENDBRANCH  41  48
ENDBRANCH   1  41
TORSDOF 28
ENDMDL
MODEL 7
REMARK VINA RESULT:      -2.4     26.504     31.353
REMARK  28 active torsions:
REMARK  status: ('A' for Active; 'I' for Inactive)
REMARK       I    between atoms: C_1  and  N_3 
REMARK    1  A    between atoms: C_1  and  C_41 
REMARK    2  A    between atoms: N_3  and  C_5 
REMARK    3  A    between atoms: C_5  and  C_6 
REMARK    4  A    between atoms: C_5  and  C_18 
REMARK       I    between atoms: C_18  and  N_19 
REMARK    5  A    between atoms: C_20  and  C_25 
REMARK       I    between atoms: C_25  and  N_26 
REMARK    6  A    between atoms: N_26  and  C_29 
REMARK    7  A    between atoms: C_29  and  C_30 
REMARK    8  A    between atoms: C_29  and  C_38 
REMARK       I    between atoms: C_30  and  N_31 
REMARK    9  A    between atoms: N_31  and  C_34 
REMARK   10  A    between atoms: C_34  and  C_35 
REMARK   11  A    between atoms: C_38  and  O_39 
REMARK   12  A    between atoms: C_6  and  C_7 
REMARK   13  A    between atoms: C_7  and  C_8 
REMARK   14  A    between atoms: C_8  and  N_9 
REMARK       I    between atoms: N_9  and  C_10 
REMARK       I    between atoms: C_10  and  N_12 
REMARK   15  A    between atoms: C_41  and  C_42 
REMARK   16  A    between atoms: C_41  and  N_48 
REMARK       I    between atoms: N_48  and  C_50 
REMARK   17  A    between atoms: C_50  and  C_52 
REMARK   18  A    between atoms: C_52  and  N_53 
REMARK   19  A    between atoms: C_52  and  C_72 
REMARK       I    between atoms: N_53  and  C_55 
REMARK   20  A    between atoms: C_55  and  C_57 
REMARK   21  A    between atoms: C_57  and  N_58 
REMARK       I    between atoms: N_58  and  C_60 
REMARK   22  A    between atoms: C_60  and  C_62 
REMARK   23  A    between atoms: C_62  and  N_63 
REMARK   24  A    between atoms: C_62  and  C_67 
REMARK   25  A    between atoms: C_67  and  C_68 
REMARK   26  A    between atoms: C_68  and  C_69 
REMARK   27  A    between atoms: C_72  and  C_73 
REMARK   28  A    between atoms: C_42  and  C_43 
REMARK       I    between atoms: C_43  and  N_44 
ROOT
HETATM    1  C           0      17.092   6.064   3.481  0.00  0.00     0.241 C 
HETATM    2  O           0      17.351   6.160   4.686  0.00  0.00    -0.271 OA
HETATM    3  N           0      17.158   4.879   2.830  0.00  0.00    -0.346 N 
HETATM    4  H           0      16.972   4.848   1.834  0.00  0.00     0.163 HD
ENDROOT
BRANCH   3   5
HETATM    5  C           0      17.353   3.638   3.576  0.00  0.00     0.176 C 
BRANCH   5   6
HETATM    6  C           0      16.022   2.911   3.828  0.00  0.00     0.036 C 
BRANCH   6   7
HETATM    7  C           0      15.134   2.943   2.578  0.00  0.00     0.023 C 
BRANCH   7   8
HETATM    8  C           0      13.694   2.493   2.822  0.00  0.00     0.138 C 
BRANCH   8   9
HETATM    9  N           0      13.729   1.436   3.829  0.00  0.00    -0.227 N 
HETATM   10  C           0      13.772   0.125   3.607  0.00  0.00     0.665 C 
HETATM   11  N           0      13.726  -0.382   2.368  0.00  0.00    -0.235 N 
HETATM   12  N           0      13.876  -0.685   4.677  0.00  0.00    -0.235 N 
HETATM   13  H           0      13.903  -1.362   2.207  0.00  0.00     0.174 HD
HETATM   14  H           0      13.728   0.223   1.562  0.00  0.00     0.174 HD
HETATM   15  H           0      13.669  -1.668   4.591  0.00  0.00     0.174 HD
HETATM   16  H           0      13.771  -0.232   5.588  0.00  0.00     0.174 HD
HETATM   17  H           0      13.698   1.690   4.831  0.00  0.00     0.177 HD
ENDBRANCH   8   9
ENDBRANCH   7   8
ENDBRANCH   6   7
ENDBRANCH   5   6
BRANCH   5  18
HETATM   18  C           0      18.458   2.705   3.033  0.00  0.00     0.243 C 
HETATM   19  N           0      19.303   2.066   3.886  0.00  0.00    -0.337 N 
HETATM   20  C           0      20.265   1.088   3.350  0.00  0.00     0.179 C 
HETATM   21  C           0      19.716   2.510   5.234  0.00  0.00     0.127 C 
HETATM   22  C           0      21.463   1.126   4.339  0.00  0.00     0.037 C 
HETATM   23  C           0      21.243   2.407   5.160  0.00  0.00     0.022 C 
HETATM   24  O           0      18.491   2.518   1.813  0.00  0.00    -0.271 OA
BRANCH  20  25
HETATM   25  C           0      19.725  -0.347   3.216  0.00  0.00     0.241 C 
HETATM   26  N           0      19.136  -0.696   2.044  0.00  0.00    -0.344 N 
HETATM   27  H           0      19.074  -0.018   1.288  0.00  0.00     0.163 HD
HETATM   28  O           0      19.832  -1.115   4.174  0.00  0.00    -0.271 OA
BRANCH  26  29
HETATM   29  C           0      18.432  -1.961   1.884  0.00  0.00     0.200 C 
BRANCH  29  30
HETATM   30  C           0      17.140  -2.118   2.709  0.00  0.00     0.242 C 
HETATM   31  N           0      16.591  -3.338   2.791  0.00  0.00    -0.354 N 
HETATM   32  H           0      17.015  -4.165   2.377  0.00  0.00     0.162 HD
HETATM   33  O           0      16.659  -1.116   3.259  0.00  0.00    -0.271 OA
BRANCH  31  34
HETATM   34  C           0      15.405  -3.631   3.574  0.00  0.00     0.203 C 
BRANCH  34  35
HETATM   35  C           0      14.221  -4.016   2.641  0.00  0.00     0.307 C 
HETATM   36  O           0      14.126  -3.369   1.564  0.00  0.00    -0.186 OA
HETATM   37  O           0      13.485  -4.939   3.068  0.00  0.00    -0.186 OA
ENDBRANCH  34  35
ENDBRANCH  31  34
ENDBRANCH  29  30
BRANCH  29  38
HETATM   38  C           0      19.369  -3.155   2.166  0.00  0.00     0.199 C 
BRANCH  38  39
HETATM   39  O           0      20.694  -2.929   1.721  0.00  0.00    -0.398 OA
HETATM   40  H           0      21.106  -2.228   2.254  0.00  0.00     0.209 HD
ENDBRANCH  38  39
ENDBRANCH  29  38
ENDBRANCH  26  29
ENDBRANCH  20  25
ENDBRANCH   5  18
ENDBRANCH   3   5
BRANCH   1  41
HETATM   41  C           0      16.630   7.289   2.663  0.00  0.00     0.185 C 
BRANCH  41  42
HETATM   42  C           0      17.682   7.739   1.631  0.00  0.00     0.137 C 
BRANCH  42  43
HETATM   43  C           0      19.096   7.908   2.187  0.00  0.00     0.217 C 
HETATM   44  N           0      19.317   9.102   2.778  0.00  0.00    -0.370 N 
HETATM   45  H           0      20.263   9.307   3.069  0.00  0.00     0.159 HD
HETATM   46  H           0      18.618   9.855   2.787  0.00  0.00     0.159 HD
HETATM   47  O           0      19.955   7.032   2.063  0.00  0.00    -0.274 OA
ENDBRANCH  42  43
ENDBRANCH  41  42
BRANCH  41  48
HETATM   48  N           0      16.336   8.437   3.511  0.00  0.00    -0.346 N 
HETATM   49  H           0      17.079   8.807   4.091  0.00  0.00     0.163 HD
HETATM   50  C           0      15.107   8.978   3.640  0.00  0.00     0.241 C 
HETATM   51  O           0      14.106   8.532   3.066  0.00  0.00    -0.271 OA
BRANCH  50  52
HETATM   52  C           0      14.995  10.229   4.532  0.00  0.00     0.177 C 
BRANCH  52  53
HETATM   53  N           0      15.812  11.336   4.043  0.00  0.00    -0.346 N 
HETATM   54  H           0      15.367  12.072   3.510  0.00  0.00     0.163 HD
HETATM   55  C           0      17.120  11.471   4.388  0.00  0.00     0.236 C 
HETATM   56  O           0      17.703  10.681   5.127  0.00  0.00    -0.272 OA
BRANCH  55  57
HETATM   57  C           0      17.855  12.694   3.824  0.00  0.00     0.225 C 
BRANCH  57  58
HETATM   58  N           0      19.231  12.838   4.295  0.00  0.00    -0.351 N 
HETATM   59  H           0      19.366  13.026   5.278  0.00  0.00     0.163 HD
HETATM   60  C           0      20.252  12.437   3.501  0.00  0.00     0.248 C 
HETATM   61  O           0      20.054  12.035   2.350  0.00  0.00    -0.271 OA
BRANCH  60  62
HETATM   62  C           0      21.700  12.500   4.002  0.00  0.00     0.275 C 
BRANCH  62  63
HETATM   63  N           0      22.005  13.768   4.782  0.00  0.00    -0.066 N 
HETATM   64  H           0      22.785  13.648   5.438  0.00  0.00     0.275 HD
HETATM   65  H           0      22.210  14.579   4.189  0.00  0.00     0.275 HD
HETATM   66  H           0      21.188  14.028   5.343  0.00  0.00     0.275 HD
ENDBRANCH  62  63
BRANCH  62  67
HETATM   67  C           0      22.149  11.286   4.831  0.00  0.00     0.053 C 
BRANCH  67  68
HETATM   68  C           0      22.615  10.087   3.996  0.00  0.00     0.115 C 
BRANCH  68  69
HETATM   69  C           0      22.474   8.694   4.642  0.00  0.00     0.172 C 
HETATM   70  O           0      23.505   7.990   4.801  0.00  0.00    -0.648 OA
HETATM   71  O           0      21.290   8.343   4.954  0.00  0.00    -0.648 OA
ENDBRANCH  68  69
ENDBRANCH  67  68
ENDBRANCH  62  67
ENDBRANCH  60  62
ENDBRANCH  57  58
ENDBRANCH  55  57
ENDBRANCH  52  53
BRANCH  52  72
HETATM   72  C           0      13.531  10.705   4.668  0.00  0.00     0.038 C 
BRANCH  72  73
HETATM   73  C           0      13.131  11.969   3.884  0.00  0.00    -0.020 C 
HETATM   74  C           0      12.676  11.654   2.451  0.00  0.00     0.009 C 
HETATM   75  C           0      12.031  12.715   4.656  0.00  0.00     0.009 C 
ENDBRANCH  72  73
ENDBRANCH  52  72
ENDBRANCH  50  52
ENDBRANCH  41  48
ENDBRANCH   1  41
TORSDOF 28
ENDMDL
MODEL 8
REMARK VINA RESULT:      -2.4      3.149     11.062
REMARK  28 active torsions:
REMARK  status: ('A' for Active; 'I' for Inactive)
REMARK       I    between atoms: C_1  and  N_3 
REMARK    1  A    between atoms: C_1  and  C_41 
REMARK    2  A    between atoms: N_3  and  C_5 
REMARK    3  A    between atoms: C_5  and  C_6 
REMARK    4  A    between atoms: C_5  and  C_18 
REMARK       I    between atoms: C_18  and  N_19 
REMARK    5  A    between atoms: C_20  and  C_25 
REMARK       I    between atoms: C_25  and  N_26 
REMARK    6  A    between atoms: N_26  and  C_29 
REMARK    7  A    between atoms: C_29  and  C_30 
REMARK    8  A    between atoms: C_29  and  C_38 
REMARK       I    between atoms: C_30  and  N_31 
REMARK    9  A    between atoms: N_31  and  C_34 
REMARK   10  A    between atoms: C_34  and  C_35 
REMARK   11  A    between atoms: C_38  and  O_39 
REMARK   12  A    between atoms: C_6  and  C_7 
REMARK   13  A    between atoms: C_7  and  C_8 
REMARK   14  A    between atoms: C_8  and  N_9 
REMARK       I    between atoms: N_9  and  C_10 
REMARK       I    between atoms: C_10  and  N_12 
REMARK   15  A    between atoms: C_41  and  C_42 
REMARK   16  A    between atoms: C_41  and  N_48 
REMARK       I    between atoms: N_48  and  C_50 
REMARK   17  A    between atoms: C_50  and  C_52 
REMARK   18  A    between atoms: C_52  and  N_53 
REMARK   19  A    between atoms: C_52  and  C_72 
REMARK       I    between atoms: N_53  and  C_55 
REMARK   20  A    between atoms: C_55  and  C_57 
REMARK   21  A    between atoms: C_57  and  N_58 
REMARK       I    between atoms: N_58  and  C_60 
REMARK   22  A    between atoms: C_60  and  C_62 
REMARK   23  A    between atoms: C_62  and  N_63 
REMARK   24  A    between atoms: C_62  and  C_67 
REMARK   25  A    between atoms: C_67  and  C_68 
REMARK   26  A    between atoms: C_68  and  C_69 
REMARK   27  A    between atoms: C_72  and  C_73 
REMARK   28  A    between atoms: C_42  and  C_43 
REMARK       I    between atoms: C_43  and  N_44 
ROOT
HETATM    1  C           0     -11.187  -1.008   4.050  0.00  0.00     0.241 C 
HETATM    2  O           0     -11.115  -0.888   2.822  0.00  0.00    -0.271 OA
HETATM    3  N           0     -11.103   0.060   4.877  0.00  0.00    -0.346 N 
HETATM    4  H           0     -11.131  -0.084   5.880  0.00  0.00     0.163 HD
ENDROOT
BRANCH   3   5
HETATM    5  C           0     -11.115   1.416   4.333  0.00  0.00     0.176 C 
BRANCH   5   6
HETATM    6  C           0      -9.748   1.805   3.747  0.00  0.00     0.036 C 
BRANCH   6   7
HETATM    7  C           0      -8.695   1.942   4.853  0.00  0.00     0.023 C 
BRANCH   7   8
HETATM    8  C           0      -7.343   1.316   4.513  0.00  0.00     0.138 C 
BRANCH   8   9
HETATM    9  N           0      -7.600   0.155   3.664  0.00  0.00    -0.227 N 
HETATM   10  C           0      -6.806  -0.897   3.491  0.00  0.00     0.665 C 
HETATM   11  N           0      -5.599  -0.972   4.069  0.00  0.00    -0.235 N 
HETATM   12  N           0      -7.261  -1.902   2.720  0.00  0.00    -0.235 N 
HETATM   13  H           0      -5.071  -1.832   4.046  0.00  0.00     0.174 HD
HETATM   14  H           0      -5.288  -0.259   4.709  0.00  0.00     0.174 HD
HETATM   15  H           0      -6.623  -2.596   2.362  0.00  0.00     0.174 HD
HETATM   16  H           0      -8.127  -1.713   2.211  0.00  0.00     0.174 HD
HETATM   17  H           0      -8.470   0.120   3.105  0.00  0.00     0.177 HD
ENDBRANCH   8   9
ENDBRANCH   7   8
ENDBRANCH   6   7
ENDBRANCH   5   6
BRANCH   5  18
HETATM   18  C           0     -12.293   1.739   3.387  0.00  0.00     0.243 C 
HETATM   19  N           0     -13.563   1.813   3.867  0.00  0.00    -0.337 N 
HETATM   20  C           0     -14.650   2.244   2.970  0.00  0.00     0.179 C 
HETATM   21  C           0     -14.115   1.111   5.045  0.00  0.00     0.127 C 
HETATM   22  C           0     -15.922   1.545   3.523  0.00  0.00     0.037 C 
HETATM   23  C           0     -15.385   0.467   4.478  0.00  0.00     0.022 C 
HETATM   24  O           0     -12.020   1.991   2.209  0.00  0.00    -0.271 OA
BRANCH  20  25
HETATM   25  C           0     -14.862   3.766   2.894  0.00  0.00     0.241 C 
HETATM   26  N           0     -15.690   4.337   3.805  0.00  0.00    -0.344 N 
HETATM   27  H           0     -16.136   3.761   4.514  0.00  0.00     0.163 HD
HETATM   28  O           0     -14.291   4.403   2.006  0.00  0.00    -0.271 OA
BRANCH  26  29
HETATM   29  C           0     -16.100   5.730   3.703  0.00  0.00     0.200 C 
BRANCH  29  30
HETATM   30  C           0     -15.212   6.747   4.447  0.00  0.00     0.242 C 
HETATM   31  N           0     -15.411   8.051   4.207  0.00  0.00    -0.354 N 
HETATM   32  H           0     -16.151   8.395   3.598  0.00  0.00     0.162 HD
HETATM   33  O           0     -14.349   6.323   5.231  0.00  0.00    -0.271 OA
BRANCH  31  34
HETATM   34  C           0     -14.678   9.109   4.876  0.00  0.00     0.203 C 
BRANCH  34  35
HETATM   35  C           0     -13.919   9.984   3.837  0.00  0.00     0.307 C 
HETATM   36  O           0     -14.574  10.335   2.819  0.00  0.00    -0.186 OA
HETATM   37  O           0     -12.728  10.246   4.131  0.00  0.00    -0.186 OA
ENDBRANCH  34  35
ENDBRANCH  31  34
ENDBRANCH  29  30
BRANCH  29  38
HETATM   38  C           0     -17.567   5.910   4.148  0.00  0.00     0.199 C 
BRANCH  38  39
HETATM   39  O           0     -18.031   7.238   3.987  0.00  0.00    -0.398 OA
HETATM   40  H           0     -17.276   7.836   3.853  0.00  0.00     0.209 HD
ENDBRANCH  38  39
ENDBRANCH  29  38
ENDBRANCH  26  29
ENDBRANCH  20  25
ENDBRANCH   5  18
ENDBRANCH   3   5
BRANCH   1  41
HETATM   41  C           0     -11.427  -2.385   4.705  0.00  0.00     0.185 C 
BRANCH  41  42
HETATM   42  C           0     -10.143  -2.982   5.310  0.00  0.00     0.137 C 
BRANCH  42  43
HETATM   43  C           0      -9.513  -4.111   4.493  0.00  0.00     0.217 C 
HETATM   44  N           0      -9.271  -5.236   5.201  0.00  0.00    -0.370 N 
HETATM   45  H           0      -8.762  -5.974   4.736  0.00  0.00     0.159 HD
HETATM   46  H           0      -9.431  -5.299   6.213  0.00  0.00     0.159 HD
HETATM   47  O           0      -9.225  -3.972   3.301  0.00  0.00    -0.274 OA
ENDBRANCH  42  43
ENDBRANCH  41  42
BRANCH  41  48
HETATM   48  N           0     -11.955  -3.360   3.758  0.00  0.00    -0.346 N 
HETATM   49  H           0     -11.414  -3.560   2.927  0.00  0.00     0.163 HD
HETATM   50  C           0     -13.166  -3.941   3.878  0.00  0.00     0.241 C 
HETATM   51  O           0     -13.956  -3.680   4.794  0.00  0.00    -0.271 OA
BRANCH  50  52
HETATM   52  C           0     -13.532  -4.996   2.816  0.00  0.00     0.177 C 
BRANCH  52  53
HETATM   53  N           0     -13.844  -6.294   3.406  0.00  0.00    -0.346 N 
HETATM   54  H           0     -14.711  -6.749   3.151  0.00  0.00     0.163 HD
HETATM   55  C           0     -12.953  -6.962   4.186  0.00  0.00     0.236 C 
HETATM   56  O           0     -11.834  -6.529   4.447  0.00  0.00    -0.272 OA
BRANCH  55  57
HETATM   57  C           0     -13.401  -8.329   4.722  0.00  0.00     0.225 C 
BRANCH  57  58
HETATM   58  N           0     -13.276  -9.422   3.759  0.00  0.00    -0.351 N 
HETATM   59  H           0     -12.351  -9.620   3.404  0.00  0.00     0.163 HD
HETATM   60  C           0     -14.301 -10.292   3.603  0.00  0.00     0.248 C 
HETATM   61  O           0     -15.377 -10.133   4.190  0.00  0.00    -0.271 OA
BRANCH  60  62
HETATM   62  C           0     -14.166 -11.494   2.661  0.00  0.00     0.275 C 
BRANCH  62  63
HETATM   63  N           0     -15.302 -11.593   1.656  0.00  0.00    -0.066 N 
HETATM   64  H           0     -15.801 -12.488   1.714  0.00  0.00     0.275 HD
HETATM   65  H           0     -15.991 -10.840   1.735  0.00  0.00     0.275 HD
HETATM   66  H           0     -14.922 -11.531   0.706  0.00  0.00     0.275 HD
ENDBRANCH  62  63
BRANCH  62  67
HETATM   67  C           0     -12.827 -11.576   1.909  0.00  0.00     0.053 C 
BRANCH  67  68
HETATM   68  C           0     -12.142 -12.946   1.985  0.00  0.00     0.115 C 
BRANCH  68  69
HETATM   69  C           0     -11.466 -13.311   3.321  0.00  0.00     0.172 C 
HETATM   70  O           0     -10.325 -12.843   3.574  0.00  0.00    -0.648 OA
HETATM   71  O           0     -12.122 -14.095   4.080  0.00  0.00    -0.648 OA
ENDBRANCH  68  69
ENDBRANCH  67  68
ENDBRANCH  62  67
ENDBRANCH  60  62
ENDBRANCH  57  58
ENDBRANCH  55  57
ENDBRANCH  52  53
BRANCH  52  72
HETATM   72  C           0     -14.723  -4.539   1.943  0.00  0.00     0.038 C 
BRANCH  72  73
HETATM   73  C           0     -16.038  -4.207   2.674  0.00  0.00    -0.020 C 
HETATM   74  C           0     -16.545  -2.792   2.362  0.00  0.00     0.009 C 
HETATM   75  C           0     -17.096  -5.261   2.310  0.00  0.00     0.009 C 
ENDBRANCH  72  73
ENDBRANCH  52  72
ENDBRANCH  50  52
ENDBRANCH  41  48
ENDBRANCH   1  41
TORSDOF 28
ENDMDL
MODEL 9
REMARK VINA RESULT:      -2.4      1.773      2.527
REMARK  28 active torsions:
REMARK  status: ('A' for Active; 'I' for Inactive)
REMARK       I    between atoms: C_1  and  N_3 
REMARK    1  A    between atoms: C_1  and  C_41 
REMARK    2  A    between atoms: N_3  and  C_5 
REMARK    3  A    between atoms: C_5  and  C_6 
REMARK    4  A    between atoms: C_5  and  C_18 
REMARK       I    between atoms: C_18  and  N_19 
REMARK    5  A    between atoms: C_20  and  C_25 
REMARK       I    between atoms: C_25  and  N_26 
REMARK    6  A    between atoms: N_26  and  C_29 
REMARK    7  A    between atoms: C_29  and  C_30 
REMARK    8  A    between atoms: C_29  and  C_38 
REMARK       I    between atoms: C_30  and  N_31 
REMARK    9  A    between atoms: N_31  and  C_34 
REMARK   10  A    between atoms: C_34  and  C_35 
REMARK   11  A    between atoms: C_38  and  O_39 
REMARK   12  A    between atoms: C_6  and  C_7 
REMARK   13  A    between atoms: C_7  and  C_8 
REMARK   14  A    between atoms: C_8  and  N_9 
REMARK       I    between atoms: N_9  and  C_10 
REMARK       I    between atoms: C_10  and  N_12 
REMARK   15  A    between atoms: C_41  and  C_42 
REMARK   16  A    between atoms: C_41  and  N_48 
REMARK       I    between atoms: N_48  and  C_50 
REMARK   17  A    between atoms: C_50  and  C_52 
REMARK   18  A    between atoms: C_52  and  N_53 
REMARK   19  A    between atoms: C_52  and  C_72 
REMARK       I    between atoms: N_53  and  C_55 
REMARK   20  A    between atoms: C_55  and  C_57 
REMARK   21  A    between atoms: C_57  and  N_58 
REMARK       I    between atoms: N_58  and  C_60 
REMARK   22  A    between atoms: C_60  and  C_62 
REMARK   23  A    between atoms: C_62  and  N_63 
REMARK   24  A    between atoms: C_62  and  C_67 
REMARK   25  A    between atoms: C_67  and  C_68 
REMARK   26  A    between atoms: C_68  and  C_69 
REMARK   27  A    between atoms: C_72  and  C_73 
REMARK   28  A    between atoms: C_42  and  C_43 
REMARK       I    between atoms: C_43  and  N_44 
ROOT
HETATM    1  C           0     -11.540   0.854   3.073  0.00  0.00     0.241 C 
HETATM    2  O           0     -11.914   0.639   4.232  0.00  0.00    -0.271 OA
HETATM    3  N           0     -10.954  -0.109   2.323  0.00  0.00    -0.346 N 
HETATM    4  H           0     -10.628   0.116   1.391  0.00  0.00     0.163 HD
ENDROOT
BRANCH   3   5
HETATM    5  C           0     -10.918  -1.492   2.796  0.00  0.00     0.176 C 
BRANCH   5   6
HETATM    6  C           0     -12.151  -2.283   2.330  0.00  0.00     0.036 C 
BRANCH   6   7
HETATM    7  C           0     -12.462  -3.435   3.292  0.00  0.00     0.023 C 
BRANCH   7   8
HETATM    8  C           0     -12.749  -4.768   2.602  0.00  0.00     0.138 C 
BRANCH   8   9
HETATM    9  N           0     -13.890  -5.376   3.282  0.00  0.00    -0.227 N 
HETATM   10  C           0     -14.642  -6.378   2.836  0.00  0.00     0.665 C 
HETATM   11  N           0     -14.449  -6.920   1.625  0.00  0.00    -0.235 N 
HETATM   12  N           0     -15.606  -6.845   3.651  0.00  0.00    -0.235 N 
HETATM   13  H           0     -14.928  -7.767   1.359  0.00  0.00     0.174 HD
HETATM   14  H           0     -13.680  -6.626   1.045  0.00  0.00     0.174 HD
HETATM   15  H           0     -16.347  -7.422   3.283  0.00  0.00     0.174 HD
HETATM   16  H           0     -15.776  -6.296   4.497  0.00  0.00     0.174 HD
HETATM   17  H           0     -14.191  -5.003   4.198  0.00  0.00     0.177 HD
ENDBRANCH   8   9
ENDBRANCH   7   8
ENDBRANCH   6   7
ENDBRANCH   5   6
BRANCH   5  18
HETATM   18  C           0      -9.590  -2.241   2.550  0.00  0.00     0.243 C 
HETATM   19  N           0      -8.567  -2.143   3.442  0.00  0.00    -0.337 N 
HETATM   20  C           0      -7.360  -2.964   3.248  0.00  0.00     0.179 C 
HETATM   21  C           0      -8.282  -1.014   4.353  0.00  0.00     0.127 C 
HETATM   22  C           0      -6.211  -2.140   3.892  0.00  0.00     0.037 C 
HETATM   23  C           0      -6.802  -0.733   4.073  0.00  0.00     0.022 C 
HETATM   24  O           0      -9.529  -2.976   1.560  0.00  0.00    -0.271 OA
BRANCH  20  25
HETATM   25  C           0      -7.426  -4.370   3.868  0.00  0.00     0.241 C 
HETATM   26  N           0      -7.904  -5.381   3.099  0.00  0.00    -0.344 N 
HETATM   27  H           0      -8.194  -5.195   2.142  0.00  0.00     0.163 HD
HETATM   28  O           0      -7.059  -4.524   5.035  0.00  0.00    -0.271 OA
BRANCH  26  29
HETATM   29  C           0      -8.179  -6.701   3.648  0.00  0.00     0.200 C 
BRANCH  29  30
HETATM   30  C           0      -9.515  -6.849   4.403  0.00  0.00     0.242 C 
HETATM   31  N           0     -10.079  -8.063   4.452  0.00  0.00    -0.354 N 
HETATM   32  H           0      -9.642  -8.893   4.058  0.00  0.00     0.162 HD
HETATM   33  O           0     -10.015  -5.843   4.930  0.00  0.00    -0.271 OA
BRANCH  31  34
HETATM   34  C           0     -11.308  -8.347   5.170  0.00  0.00     0.203 C 
BRANCH  34  35
HETATM   35  C           0     -12.433  -8.758   4.178  0.00  0.00     0.307 C 
HETATM   36  O           0     -13.530  -9.108   4.692  0.00  0.00    -0.186 OA
HETATM   37  O           0     -12.123  -8.695   2.964  0.00  0.00    -0.186 OA
ENDBRANCH  34  35
ENDBRANCH  31  34
ENDBRANCH  29  30
BRANCH  29  38
HETATM   38  C           0      -7.023  -7.176   4.555  0.00  0.00     0.199 C 
BRANCH  38  39
HETATM   39  O           0      -6.922  -8.586   4.622  0.00  0.00    -0.398 OA
HETATM   40  H           0      -7.539  -8.929   5.290  0.00  0.00     0.209 HD
ENDBRANCH  38  39
ENDBRANCH  29  38
ENDBRANCH  26  29
ENDBRANCH  20  25
ENDBRANCH   5  18
ENDBRANCH   3   5
BRANCH   1  41
HETATM   41  C           0     -11.766   2.225   2.402  0.00  0.00     0.185 C 
BRANCH  41  42
HETATM   42  C           0     -11.255   3.395   3.263  0.00  0.00     0.137 C 
BRANCH  42  43
HETATM   43  C           0      -9.783   3.303   3.663  0.00  0.00     0.217 C 
HETATM   44  N           0      -9.387   4.257   4.533  0.00  0.00    -0.370 N 
HETATM   45  H           0      -8.401   4.306   4.750  0.00  0.00     0.159 HD
HETATM   46  H           0     -10.005   5.018   4.841  0.00  0.00     0.159 HD
HETATM   47  O           0      -9.030   2.447   3.192  0.00  0.00    -0.274 OA
ENDBRANCH  42  43
ENDBRANCH  41  42
BRANCH  41  48
HETATM   48  N           0     -13.175   2.474   2.123  0.00  0.00    -0.346 N 
HETATM   49  H           0     -13.507   2.339   1.177  0.00  0.00     0.163 HD
HETATM   50  C           0     -14.042   2.966   3.032  0.00  0.00     0.241 C 
HETATM   51  O           0     -13.715   3.276   4.184  0.00  0.00    -0.271 OA
BRANCH  50  52
HETATM   52  C           0     -15.508   3.106   2.579  0.00  0.00     0.177 C 
BRANCH  52  53
HETATM   53  N           0     -16.094   1.828   2.189  0.00  0.00    -0.346 N 
HETATM   54  H           0     -16.304   1.665   1.212  0.00  0.00     0.163 HD
HETATM   55  C           0     -16.249   0.808   3.075  0.00  0.00     0.236 C 
HETATM   56  O           0     -15.911   0.887   4.253  0.00  0.00    -0.272 OA
BRANCH  55  57
HETATM   57  C           0     -16.857  -0.491   2.526  0.00  0.00     0.225 C 
BRANCH  57  58
HETATM   58  N           0     -18.315  -0.550   2.600  0.00  0.00    -0.351 N 
HETATM   59  H           0     -18.832  -0.208   1.803  0.00  0.00     0.163 HD
HETATM   60  C           0     -18.903  -1.300   3.562  0.00  0.00     0.248 C 
HETATM   61  O           0     -18.237  -1.866   4.435  0.00  0.00    -0.271 OA
BRANCH  60  62
HETATM   62  C           0     -20.428  -1.445   3.613  0.00  0.00     0.275 C 
BRANCH  62  63
HETATM   63  N           0     -21.151  -0.112   3.703  0.00  0.00    -0.066 N 
HETATM   64  H           0     -21.130   0.408   2.819  0.00  0.00     0.275 HD
HETATM   65  H           0     -22.127  -0.190   4.003  0.00  0.00     0.275 HD
HETATM   66  H           0     -20.687   0.480   4.401  0.00  0.00     0.275 HD
ENDBRANCH  62  63
BRANCH  62  67
HETATM   67  C           0     -21.037  -2.264   2.462  0.00  0.00     0.053 C 
BRANCH  67  68
HETATM   68  C           0     -20.358  -3.617   2.220  0.00  0.00     0.115 C 
BRANCH  68  69
HETATM   69  C           0     -21.193  -4.877   2.521  0.00  0.00     0.172 C 
HETATM   70  O           0     -21.737  -5.489   1.565  0.00  0.00    -0.648 OA
HETATM   71  O           0     -21.288  -5.201   3.749  0.00  0.00    -0.648 OA
ENDBRANCH  68  69
ENDBRANCH  67  68
ENDBRANCH  62  67
ENDBRANCH  60  62
ENDBRANCH  57  58
ENDBRANCH  55  57
ENDBRANCH  52  53
BRANCH  52  72
HETATM   72  C           0     -16.386   3.750   3.677  0.00  0.00     0.038 C 
BRANCH  72  73
HETATM   73  C           0     -16.558   5.280   3.626  0.00  0.00    -0.020 C 
HETATM   74  C           0     -17.940   5.701   3.107  0.00  0.00     0.009 C 
HETATM   75  C           0     -16.298   5.863   5.024  0.00  0.00     0.009 C 
ENDBRANCH  72  73
ENDBRANCH  52  72
ENDBRANCH  50  52
ENDBRANCH  41  48
ENDBRANCH   1  41
TORSDOF 28
ENDMDL
