MODEL 1
REMARK VINA RESULT:      -3.7      0.000      0.000
REMARK  28 active torsions:
REMARK  status: ('A' for Active; 'I' for Inactive)
REMARK       I    between atoms: C_1  and  N_3 
REMARK    1  A    between atoms: C_1  and  C_41 
REMARK    2  A    between atoms: N_3  and  C_5 
REMARK    3  A    between atoms: C_5  and  C_6 
REMARK    4  A    between atoms: C_5  and  C_18 
REMARK       I    between atoms: C_18  and  N_19 
REMARK    5  A    between atoms: C_20  and  C_25 
REMARK       I    between atoms: C_25  and  N_26 
REMARK    6  A    between atoms: N_26  and  C_29 
REMARK    7  A    between atoms: C_29  and  C_30 
REMARK    8  A    between atoms: C_29  and  C_38 
REMARK       I    between atoms: C_30  and  N_31 
REMARK    9  A    between atoms: N_31  and  C_34 
REMARK   10  A    between atoms: C_34  and  C_35 
REMARK   11  A    between atoms: C_38  and  O_39 
REMARK   12  A    between atoms: C_6  and  C_7 
REMARK   13  A    between atoms: C_7  and  C_8 
REMARK   14  A    between atoms: C_8  and  N_9 
REMARK       I    between atoms: N_9  and  C_10 
REMARK       I    between atoms: C_10  and  N_12 
REMARK   15  A    between atoms: C_41  and  C_42 
REMARK   16  A    between atoms: C_41  and  N_48 
REMARK       I    between atoms: N_48  and  C_50 
REMARK   17  A    between atoms: C_50  and  C_52 
REMARK   18  A    between atoms: C_52  and  N_53 
REMARK   19  A    between atoms: C_52  and  C_72 
REMARK       I    between atoms: N_53  and  C_55 
REMARK   20  A    between atoms: C_55  and  C_57 
REMARK   21  A    between atoms: C_57  and  N_58 
REMARK       I    between atoms: N_58  and  C_60 
REMARK   22  A    between atoms: C_60  and  C_62 
REMARK   23  A    between atoms: C_62  and  N_63 
REMARK   24  A    between atoms: C_62  and  C_67 
REMARK   25  A    between atoms: C_67  and  C_68 
REMARK   26  A    between atoms: C_68  and  C_69 
REMARK   27  A    between atoms: C_72  and  C_73 
REMARK   28  A    between atoms: C_42  and  C_43 
REMARK       I    between atoms: C_43  and  N_44 
ROOT
HETATM    1  C           0      -1.514 -23.121   5.792  0.00  0.00     0.241 C 
HETATM    2  O           0      -2.143 -24.008   6.379  0.00  0.00    -0.271 OA
HETATM    3  N           0      -1.822 -21.811   5.941  0.00  0.00    -0.346 N 
HETATM    4  H           0      -1.305 -21.116   5.415  0.00  0.00     0.163 HD
ENDROOT
BRANCH   3   5
HETATM    5  C           0      -2.790 -21.392   6.953  0.00  0.00     0.176 C 
BRANCH   5   6
HETATM    6  C           0      -2.173 -20.398   7.951  0.00  0.00     0.036 C 
BRANCH   6   7
HETATM    7  C           0      -1.048 -19.589   7.296  0.00  0.00     0.023 C 
BRANCH   7   8
HETATM    8  C           0       0.068 -19.177   8.256  0.00  0.00     0.138 C 
BRANCH   8   9
HETATM    9  N           0       1.280 -19.884   7.847  0.00  0.00    -0.227 N 
HETATM   10  C           0       2.531 -19.445   7.948  0.00  0.00     0.665 C 
HETATM   11  N           0       2.813 -18.217   8.406  0.00  0.00    -0.235 N 
HETATM   12  N           0       3.517 -20.284   7.581  0.00  0.00    -0.235 N 
HETATM   13  H           0       3.764 -17.951   8.611  0.00  0.00     0.174 HD
HETATM   14  H           0       2.083 -17.617   8.754  0.00  0.00     0.174 HD
HETATM   15  H           0       4.446 -19.930   7.406  0.00  0.00     0.174 HD
HETATM   16  H           0       3.218 -21.146   7.120  0.00  0.00     0.174 HD
HETATM   17  H           0       1.198 -20.818   7.411  0.00  0.00     0.177 HD
ENDBRANCH   8   9
ENDBRANCH   7   8
ENDBRANCH   6   7
ENDBRANCH   5   6
BRANCH   5  18
HETATM   18  C           0      -4.159 -20.930   6.408  0.00  0.00     0.243 C 
HETATM   19  N           0      -5.296 -21.599   6.742  0.00  0.00    -0.337 N 
HETATM   20  C           0      -6.600 -21.066   6.311  0.00  0.00     0.179 C 
HETATM   21  C           0      -5.418 -23.026   7.108  0.00  0.00     0.127 C 
HETATM   22  C           0      -7.515 -22.315   6.178  0.00  0.00     0.037 C 
HETATM   23  C           0      -6.544 -23.506   6.186  0.00  0.00     0.022 C 
HETATM   24  O           0      -4.179 -19.903   5.723  0.00  0.00    -0.271 OA
BRANCH  20  25
HETATM   25  C           0      -7.228 -20.038   7.267  0.00  0.00     0.241 C 
HETATM   26  N           0      -6.864 -18.737   7.129  0.00  0.00    -0.344 N 
HETATM   27  H           0      -6.204 -18.472   6.403  0.00  0.00     0.163 HD
HETATM   28  O           0      -8.021 -20.431   8.126  0.00  0.00    -0.271 OA
BRANCH  26  29
HETATM   29  C           0      -7.257 -17.723   8.096  0.00  0.00     0.200 C 
BRANCH  29  30
HETATM   30  C           0      -8.097 -16.556   7.542  0.00  0.00     0.242 C 
HETATM   31  N           0      -8.642 -16.696   6.325  0.00  0.00    -0.354 N 
HETATM   32  H           0      -8.567 -17.551   5.780  0.00  0.00     0.162 HD
HETATM   33  O           0      -8.232 -15.537   8.236  0.00  0.00    -0.271 OA
BRANCH  31  34
HETATM   34  C           0      -9.494 -15.695   5.710  0.00  0.00     0.203 C 
BRANCH  34  35
HETATM   35  C           0      -9.018 -15.395   4.260  0.00  0.00     0.307 C 
HETATM   36  O           0      -8.368 -14.327   4.095  0.00  0.00    -0.186 OA
HETATM   37  O           0      -9.334 -16.259   3.406  0.00  0.00    -0.186 OA
ENDBRANCH  34  35
ENDBRANCH  31  34
ENDBRANCH  29  30
BRANCH  29  38
HETATM   38  C           0      -6.026 -17.159   8.838  0.00  0.00     0.199 C 
BRANCH  38  39
HETATM   39  O           0      -5.427 -16.071   8.160  0.00  0.00    -0.398 OA
HETATM   40  H           0      -5.089 -16.366   7.297  0.00  0.00     0.209 HD
ENDBRANCH  38  39
ENDBRANCH  29  38
ENDBRANCH  26  29
ENDBRANCH  20  25
ENDBRANCH   5  18
ENDBRANCH   3   5
BRANCH   1  41
HETATM   41  C           0      -0.307 -23.459   4.892  0.00  0.00     0.185 C 
BRANCH  41  42
HETATM   42  C           0      -0.717 -24.218   3.616  0.00  0.00     0.137 C 
BRANCH  42  43
HETATM   43  C           0      -0.662 -25.741   3.728  0.00  0.00     0.217 C 
HETATM   44  N           0      -1.792 -26.300   4.212  0.00  0.00    -0.370 N 
HETATM   45  H           0      -1.773 -27.292   4.404  0.00  0.00     0.159 HD
HETATM   46  H           0      -2.590 -25.742   4.541  0.00  0.00     0.159 HD
HETATM   47  O           0       0.351 -26.381   3.433  0.00  0.00    -0.274 OA
ENDBRANCH  42  43
ENDBRANCH  41  42
BRANCH  41  48
HETATM   48  N           0       0.682 -24.278   5.583  0.00  0.00    -0.346 N 
HETATM   49  H           0       0.582 -25.284   5.545  0.00  0.00     0.163 HD
HETATM   50  C           0       1.669 -23.771   6.351  0.00  0.00     0.241 C 
HETATM   51  O           0       1.812 -22.560   6.560  0.00  0.00    -0.271 OA
BRANCH  50  52
HETATM   52  C           0       2.661 -24.784   6.953  0.00  0.00     0.177 C 
BRANCH  52  53
HETATM   53  N           0       2.007 -26.016   7.382  0.00  0.00    -0.346 N 
HETATM   54  H           0       1.886 -26.764   6.710  0.00  0.00     0.163 HD
HETATM   55  C           0       1.670 -26.237   8.681  0.00  0.00     0.236 C 
HETATM   56  O           0       1.890 -25.426   9.577  0.00  0.00    -0.272 OA
BRANCH  55  57
HETATM   57  C           0       1.009 -27.586   8.998  0.00  0.00     0.225 C 
BRANCH  57  58
HETATM   58  N           0      -0.420 -27.501   9.288  0.00  0.00    -0.351 N 
HETATM   59  H           0      -0.689 -27.382  10.255  0.00  0.00     0.163 HD
HETATM   60  C           0      -1.294 -27.290   8.275  0.00  0.00     0.248 C 
HETATM   61  O           0      -0.920 -27.258   7.098  0.00  0.00    -0.271 OA
BRANCH  60  62
HETATM   62  C           0      -2.790 -27.115   8.560  0.00  0.00     0.275 C 
BRANCH  62  63
HETATM   63  N           0      -3.260 -25.677   8.415  0.00  0.00    -0.066 N 
HETATM   64  H           0      -2.523 -24.998   8.637  0.00  0.00     0.275 HD
HETATM   65  H           0      -3.628 -25.454   7.485  0.00  0.00     0.275 HD
HETATM   66  H           0      -4.027 -25.501   9.072  0.00  0.00     0.275 HD
ENDBRANCH  62  63
BRANCH  62  67
HETATM   67  C           0      -3.714 -28.026   7.736  0.00  0.00     0.053 C 
BRANCH  67  68
HETATM   68  C           0      -5.071 -27.403   7.387  0.00  0.00     0.115 C 
BRANCH  68  69
HETATM   69  C           0      -5.278 -26.963   5.924  0.00  0.00     0.172 C 
HETATM   70  O           0      -4.432 -26.196   5.394  0.00  0.00    -0.648 OA
HETATM   71  O           0      -6.327 -27.406   5.353  0.00  0.00    -0.648 OA
ENDBRANCH  68  69
ENDBRANCH  67  68
ENDBRANCH  62  67
ENDBRANCH  60  62
ENDBRANCH  57  58
ENDBRANCH  55  57
ENDBRANCH  52  53
BRANCH  52  72
HETATM   72  C           0       3.794 -25.134   5.961  0.00  0.00     0.038 C 
BRANCH  72  73
HETATM   73  C           0       5.106 -25.674   6.561  0.00  0.00    -0.020 C 
HETATM   74  C           0       6.164 -25.976   5.490  0.00  0.00     0.009 C 
HETATM   75  C           0       5.642 -24.667   7.591  0.00  0.00     0.009 C 
ENDBRANCH  72  73
ENDBRANCH  52  72
ENDBRANCH  50  52
ENDBRANCH  41  48
ENDBRANCH   1  41
TORSDOF 28
ENDMDL
MODEL 2
REMARK VINA RESULT:      -3.6      4.588      9.228
REMARK  28 active torsions:
REMARK  status: ('A' for Active; 'I' for Inactive)
REMARK       I    between atoms: C_1  and  N_3 
REMARK    1  A    between atoms: C_1  and  C_41 
REMARK    2  A    between atoms: N_3  and  C_5 
REMARK    3  A    between atoms: C_5  and  C_6 
REMARK    4  A    between atoms: C_5  and  C_18 
REMARK       I    between atoms: C_18  and  N_19 
REMARK    5  A    between atoms: C_20  and  C_25 
REMARK       I    between atoms: C_25  and  N_26 
REMARK    6  A    between atoms: N_26  and  C_29 
REMARK    7  A    between atoms: C_29  and  C_30 
REMARK    8  A    between atoms: C_29  and  C_38 
REMARK       I    between atoms: C_30  and  N_31 
REMARK    9  A    between atoms: N_31  and  C_34 
REMARK   10  A    between atoms: C_34  and  C_35 
REMARK   11  A    between atoms: C_38  and  O_39 
REMARK   12  A    between atoms: C_6  and  C_7 
REMARK   13  A    between atoms: C_7  and  C_8 
REMARK   14  A    between atoms: C_8  and  N_9 
REMARK       I    between atoms: N_9  and  C_10 
REMARK       I    between atoms: C_10  and  N_12 
REMARK   15  A    between atoms: C_41  and  C_42 
REMARK   16  A    between atoms: C_41  and  N_48 
REMARK       I    between atoms: N_48  and  C_50 
REMARK   17  A    between atoms: C_50  and  C_52 
REMARK   18  A    between atoms: C_52  and  N_53 
REMARK   19  A    between atoms: C_52  and  C_72 
REMARK       I    between atoms: N_53  and  C_55 
REMARK   20  A    between atoms: C_55  and  C_57 
REMARK   21  A    between atoms: C_57  and  N_58 
REMARK       I    between atoms: N_58  and  C_60 
REMARK   22  A    between atoms: C_60  and  C_62 
REMARK   23  A    between atoms: C_62  and  N_63 
REMARK   24  A    between atoms: C_62  and  C_67 
REMARK   25  A    between atoms: C_67  and  C_68 
REMARK   26  A    between atoms: C_68  and  C_69 
REMARK   27  A    between atoms: C_72  and  C_73 
REMARK   28  A    between atoms: C_42  and  C_43 
REMARK       I    between atoms: C_43  and  N_44 
ROOT
HETATM    1  C           0      -5.038 -25.583   6.084  0.00  0.00     0.241 C 
HETATM    2  O           0      -3.870 -25.815   5.751  0.00  0.00    -0.271 OA
HETATM    3  N           0      -5.505 -24.318   6.209  0.00  0.00    -0.346 N 
HETATM    4  H           0      -6.458 -24.169   6.519  0.00  0.00     0.163 HD
ENDROOT
BRANCH   3   5
HETATM    5  C           0      -4.694 -23.185   5.767  0.00  0.00     0.176 C 
BRANCH   5   6
HETATM    6  C           0      -5.221 -22.590   4.451  0.00  0.00     0.036 C 
BRANCH   6   7
HETATM    7  C           0      -4.624 -23.318   3.241  0.00  0.00     0.023 C 
BRANCH   7   8
HETATM    8  C           0      -3.102 -23.212   3.135  0.00  0.00     0.138 C 
BRANCH   8   9
HETATM    9  N           0      -2.544 -24.494   3.555  0.00  0.00    -0.227 N 
HETATM   10  C           0      -1.257 -24.827   3.598  0.00  0.00     0.665 C 
HETATM   11  N           0      -0.297 -23.990   3.181  0.00  0.00    -0.235 N 
HETATM   12  N           0      -0.943 -26.040   4.089  0.00  0.00    -0.235 N 
HETATM   13  H           0       0.675 -24.197   3.351  0.00  0.00     0.174 HD
HETATM   14  H           0      -0.523 -23.053   2.886  0.00  0.00     0.174 HD
HETATM   15  H           0      -0.030 -26.435   3.923  0.00  0.00     0.174 HD
HETATM   16  H           0      -1.732 -26.667   4.261  0.00  0.00     0.174 HD
HETATM   17  H           0      -3.183 -25.257   3.837  0.00  0.00     0.177 HD
ENDBRANCH   8   9
ENDBRANCH   7   8
ENDBRANCH   6   7
ENDBRANCH   5   6
BRANCH   5  18
HETATM   18  C           0      -4.408 -22.115   6.844  0.00  0.00     0.243 C 
HETATM   19  N           0      -3.217 -22.098   7.500  0.00  0.00    -0.337 N 
HETATM   20  C           0      -2.922 -20.995   8.431  0.00  0.00     0.179 C 
HETATM   21  C           0      -2.325 -23.247   7.763  0.00  0.00     0.127 C 
HETATM   22  C           0      -1.954 -21.608   9.480  0.00  0.00     0.037 C 
HETATM   23  C           0      -2.071 -23.126   9.270  0.00  0.00     0.022 C 
HETATM   24  O           0      -5.271 -21.252   7.026  0.00  0.00    -0.271 OA
BRANCH  20  25
HETATM   25  C           0      -2.294 -19.749   7.782  0.00  0.00     0.241 C 
HETATM   26  N           0      -1.651 -18.868   8.591  0.00  0.00    -0.344 N 
HETATM   27  H           0      -1.590 -19.051   9.589  0.00  0.00     0.163 HD
HETATM   28  O           0      -2.408 -19.590   6.565  0.00  0.00    -0.271 OA
BRANCH  26  29
HETATM   29  C           0      -1.188 -17.577   8.105  0.00  0.00     0.200 C 
BRANCH  29  30
HETATM   30  C           0       0.256 -17.195   8.486  0.00  0.00     0.242 C 
HETATM   31  N           0       1.234 -18.064   8.196  0.00  0.00    -0.354 N 
HETATM   32  H           0       1.071 -18.934   7.693  0.00  0.00     0.162 HD
HETATM   33  O           0       0.456 -16.107   9.049  0.00  0.00    -0.271 OA
BRANCH  31  34
HETATM   34  C           0       2.638 -17.806   8.456  0.00  0.00     0.203 C 
BRANCH  34  35
HETATM   35  C           0       3.420 -19.144   8.587  0.00  0.00     0.307 C 
HETATM   36  O           0       2.790 -20.112   9.092  0.00  0.00    -0.186 OA
HETATM   37  O           0       4.603 -19.113   8.170  0.00  0.00    -0.186 OA
ENDBRANCH  34  35
ENDBRANCH  31  34
ENDBRANCH  29  30
BRANCH  29  38
HETATM   38  C           0      -2.147 -16.446   8.537  0.00  0.00     0.199 C 
BRANCH  38  39
HETATM   39  O           0      -2.169 -15.367   7.621  0.00  0.00    -0.398 OA
HETATM   40  H           0      -1.540 -14.682   7.903  0.00  0.00     0.209 HD
ENDBRANCH  38  39
ENDBRANCH  29  38
ENDBRANCH  26  29
ENDBRANCH  20  25
ENDBRANCH   5  18
ENDBRANCH   3   5
BRANCH   1  41
HETATM   41  C           0      -6.042 -26.728   6.329  0.00  0.00     0.185 C 
BRANCH  41  42
HETATM   42  C           0      -5.350 -28.098   6.475  0.00  0.00     0.137 C 
BRANCH  42  43
HETATM   43  C           0      -6.301 -29.293   6.540  0.00  0.00     0.217 C 
HETATM   44  N           0      -6.012 -30.275   5.658  0.00  0.00    -0.370 N 
HETATM   45  H           0      -6.668 -31.040   5.586  0.00  0.00     0.159 HD
HETATM   46  H           0      -5.264 -30.191   4.959  0.00  0.00     0.159 HD
HETATM   47  O           0      -7.263 -29.322   7.311  0.00  0.00    -0.274 OA
ENDBRANCH  42  43
ENDBRANCH  41  42
BRANCH  41  48
HETATM   48  N           0      -7.015 -26.847   5.250  0.00  0.00    -0.346 N 
HETATM   49  H           0      -6.671 -26.995   4.310  0.00  0.00     0.163 HD
HETATM   50  C           0      -8.342 -26.677   5.417  0.00  0.00     0.241 C 
HETATM   51  O           0      -8.857 -26.378   6.501  0.00  0.00    -0.271 OA
BRANCH  50  52
HETATM   52  C           0      -9.226 -26.903   4.176  0.00  0.00     0.177 C 
BRANCH  52  53
HETATM   53  N           0      -9.752 -28.263   4.107  0.00  0.00    -0.346 N 
HETATM   54  H           0     -10.737 -28.415   4.283  0.00  0.00     0.163 HD
HETATM   55  C           0      -8.987 -29.309   3.692  0.00  0.00     0.236 C 
HETATM   56  O           0      -7.814 -29.186   3.349  0.00  0.00    -0.272 OA
BRANCH  55  57
HETATM   57  C           0      -9.672 -30.682   3.644  0.00  0.00     0.225 C 
BRANCH  57  58
HETATM   58  N           0      -9.378 -31.540   4.789  0.00  0.00    -0.351 N 
HETATM   59  H           0      -8.576 -32.150   4.716  0.00  0.00     0.163 HD
HETATM   60  C           0      -9.977 -31.292   5.978  0.00  0.00     0.248 C 
HETATM   61  O           0     -10.837 -30.412   6.096  0.00  0.00    -0.271 OA
BRANCH  60  62
HETATM   62  C           0      -9.626 -32.125   7.216  0.00  0.00     0.275 C 
BRANCH  62  63
HETATM   63  N           0     -10.798 -32.299   8.168  0.00  0.00    -0.066 N 
HETATM   64  H           0     -11.413 -31.478   8.190  0.00  0.00     0.275 HD
HETATM   65  H           0     -11.374 -33.123   7.969  0.00  0.00     0.275 HD
HETATM   66  H           0     -10.445 -32.425   9.123  0.00  0.00     0.275 HD
ENDBRANCH  62  63
BRANCH  62  67
HETATM   67  C           0      -9.021 -33.506   6.914  0.00  0.00     0.053 C 
BRANCH  67  68
HETATM   68  C           0     -10.052 -34.632   6.772  0.00  0.00     0.115 C 
BRANCH  68  69
HETATM   69  C           0     -10.265 -35.204   5.357  0.00  0.00     0.172 C 
HETATM   70  O           0     -10.111 -36.440   5.171  0.00  0.00    -0.648 OA
HETATM   71  O           0     -10.569 -34.359   4.455  0.00  0.00    -0.648 OA
ENDBRANCH  68  69
ENDBRANCH  67  68
ENDBRANCH  62  67
ENDBRANCH  60  62
ENDBRANCH  57  58
ENDBRANCH  55  57
ENDBRANCH  52  53
BRANCH  52  72
HETATM   72  C           0     -10.405 -25.904   4.124  0.00  0.00     0.038 C 
BRANCH  72  73
HETATM   73  C           0     -10.049 -24.407   4.057  0.00  0.00    -0.020 C 
HETATM   74  C           0      -9.215 -24.054   2.817  0.00  0.00     0.009 C 
HETATM   75  C           0     -11.343 -23.578   4.100  0.00  0.00     0.009 C 
ENDBRANCH  72  73
ENDBRANCH  52  72
ENDBRANCH  50  52
ENDBRANCH  41  48
ENDBRANCH   1  41
TORSDOF 28
ENDMDL
MODEL 3
REMARK VINA RESULT:      -3.6      8.159     17.265
REMARK  28 active torsions:
REMARK  status: ('A' for Active; 'I' for Inactive)
REMARK       I    between atoms: C_1  and  N_3 
REMARK    1  A    between atoms: C_1  and  C_41 
REMARK    2  A    between atoms: N_3  and  C_5 
REMARK    3  A    between atoms: C_5  and  C_6 
REMARK    4  A    between atoms: C_5  and  C_18 
REMARK       I    between atoms: C_18  and  N_19 
REMARK    5  A    between atoms: C_20  and  C_25 
REMARK       I    between atoms: C_25  and  N_26 
REMARK    6  A    between atoms: N_26  and  C_29 
REMARK    7  A    between atoms: C_29  and  C_30 
REMARK    8  A    between atoms: C_29  and  C_38 
REMARK       I    between atoms: C_30  and  N_31 
REMARK    9  A    between atoms: N_31  and  C_34 
REMARK   10  A    between atoms: C_34  and  C_35 
REMARK   11  A    between atoms: C_38  and  O_39 
REMARK   12  A    between atoms: C_6  and  C_7 
REMARK   13  A    between atoms: C_7  and  C_8 
REMARK   14  A    between atoms: C_8  and  N_9 
REMARK       I    between atoms: N_9  and  C_10 
REMARK       I    between atoms: C_10  and  N_12 
REMARK   15  A    between atoms: C_41  and  C_42 
REMARK   16  A    between atoms: C_41  and  N_48 
REMARK       I    between atoms: N_48  and  C_50 
REMARK   17  A    between atoms: C_50  and  C_52 
REMARK   18  A    between atoms: C_52  and  N_53 
REMARK   19  A    between atoms: C_52  and  C_72 
REMARK       I    between atoms: N_53  and  C_55 
REMARK   20  A    between atoms: C_55  and  C_57 
REMARK   21  A    between atoms: C_57  and  N_58 
REMARK       I    between atoms: N_58  and  C_60 
REMARK   22  A    between atoms: C_60  and  C_62 
REMARK   23  A    between atoms: C_62  and  N_63 
REMARK   24  A    between atoms: C_62  and  C_67 
REMARK   25  A    between atoms: C_67  and  C_68 
REMARK   26  A    between atoms: C_68  and  C_69 
REMARK   27  A    between atoms: C_72  and  C_73 
REMARK   28  A    between atoms: C_42  and  C_43 
REMARK       I    between atoms: C_43  and  N_44 
ROOT
HETATM    1  C           0      -7.677 -10.943   6.051  0.00  0.00     0.241 C 
HETATM    2  O           0      -6.841 -11.752   5.633  0.00  0.00    -0.271 OA
HETATM    3  N           0      -8.805 -11.346   6.683  0.00  0.00    -0.346 N 
HETATM    4  H           0      -9.484 -10.655   6.979  0.00  0.00     0.163 HD
ENDROOT
BRANCH   3   5
HETATM    5  C           0      -8.977 -12.748   7.061  0.00  0.00     0.176 C 
BRANCH   5   6
HETATM    6  C           0      -8.756 -12.960   8.567  0.00  0.00     0.036 C 
BRANCH   6   7
HETATM    7  C           0      -7.348 -13.500   8.845  0.00  0.00     0.023 C 
BRANCH   7   8
HETATM    8  C           0      -7.019 -14.799   8.109  0.00  0.00     0.138 C 
BRANCH   8   9
HETATM    9  N           0      -8.010 -15.794   8.513  0.00  0.00    -0.227 N 
HETATM   10  C           0      -8.574 -16.716   7.738  0.00  0.00     0.665 C 
HETATM   11  N           0      -8.316 -16.788   6.425  0.00  0.00    -0.235 N 
HETATM   12  N           0      -9.413 -17.592   8.321  0.00  0.00    -0.235 N 
HETATM   13  H           0      -8.636 -17.574   5.881  0.00  0.00     0.174 HD
HETATM   14  H           0      -7.630 -16.185   6.000  0.00  0.00     0.174 HD
HETATM   15  H           0     -10.044 -18.142   7.759  0.00  0.00     0.174 HD
HETATM   16  H           0      -9.660 -17.390   9.293  0.00  0.00     0.174 HD
HETATM   17  H           0      -8.350 -15.802   9.489  0.00  0.00     0.177 HD
ENDBRANCH   8   9
ENDBRANCH   7   8
ENDBRANCH   6   7
ENDBRANCH   5   6
BRANCH   5  18
HETATM   18  C           0     -10.265 -13.421   6.537  0.00  0.00     0.243 C 
HETATM   19  N           0     -10.284 -14.015   5.313  0.00  0.00    -0.337 N 
HETATM   20  C           0     -11.485 -14.757   4.891  0.00  0.00     0.179 C 
HETATM   21  C           0      -9.449 -13.674   4.142  0.00  0.00     0.127 C 
HETATM   22  C           0     -11.495 -14.646   3.340  0.00  0.00     0.037 C 
HETATM   23  C           0     -10.492 -13.524   3.029  0.00  0.00     0.022 C 
HETATM   24  O           0     -11.236 -13.454   7.298  0.00  0.00    -0.271 OA
BRANCH  20  25
HETATM   25  C           0     -11.521 -16.232   5.324  0.00  0.00     0.241 C 
HETATM   26  N           0     -11.373 -17.180   4.364  0.00  0.00    -0.344 N 
HETATM   27  H           0     -11.234 -16.901   3.396  0.00  0.00     0.163 HD
HETATM   28  O           0     -11.697 -16.498   6.516  0.00  0.00    -0.271 OA
BRANCH  26  29
HETATM   29  C           0     -11.578 -18.595   4.642  0.00  0.00     0.200 C 
BRANCH  29  30
HETATM   30  C           0     -10.326 -19.487   4.537  0.00  0.00     0.242 C 
HETATM   31  N           0      -9.917 -20.130   5.639  0.00  0.00    -0.354 N 
HETATM   32  H           0     -10.424 -20.094   6.521  0.00  0.00     0.162 HD
HETATM   33  O           0      -9.745 -19.571   3.444  0.00  0.00    -0.271 OA
BRANCH  31  34
HETATM   34  C           0      -8.785 -21.037   5.663  0.00  0.00     0.203 C 
BRANCH  34  35
HETATM   35  C           0      -7.705 -20.531   6.662  0.00  0.00     0.307 C 
HETATM   36  O           0      -8.091 -20.329   7.845  0.00  0.00    -0.186 OA
HETATM   37  O           0      -6.559 -20.379   6.176  0.00  0.00    -0.186 OA
ENDBRANCH  34  35
ENDBRANCH  31  34
ENDBRANCH  29  30
BRANCH  29  38
HETATM   38  C           0     -12.699 -19.177   3.755  0.00  0.00     0.199 C 
BRANCH  38  39
HETATM   39  O           0     -13.043 -18.327   2.677  0.00  0.00    -0.398 OA
HETATM   40  H           0     -12.914 -17.398   2.936  0.00  0.00     0.209 HD
ENDBRANCH  38  39
ENDBRANCH  29  38
ENDBRANCH  26  29
ENDBRANCH  20  25
ENDBRANCH   5  18
ENDBRANCH   3   5
BRANCH   1  41
HETATM   41  C           0      -7.455  -9.422   5.917  0.00  0.00     0.185 C 
BRANCH  41  42
HETATM   42  C           0      -6.796  -8.809   7.167  0.00  0.00     0.137 C 
BRANCH  42  43
HETATM   43  C           0      -7.769  -8.170   8.158  0.00  0.00     0.217 C 
HETATM   44  N           0      -7.478  -6.889   8.469  0.00  0.00    -0.370 N 
HETATM   45  H           0      -8.026  -6.453   9.197  0.00  0.00     0.159 HD
HETATM   46  H           0      -6.635  -6.412   8.125  0.00  0.00     0.159 HD
HETATM   47  O           0      -8.711  -8.800   8.647  0.00  0.00    -0.274 OA
ENDBRANCH  42  43
ENDBRANCH  41  42
BRANCH  41  48
HETATM   48  N           0      -8.702  -8.702   5.688  0.00  0.00    -0.346 N 
HETATM   49  H           0      -9.520  -8.981   6.215  0.00  0.00     0.163 HD
HETATM   50  C           0      -8.855  -7.749   4.746  0.00  0.00     0.241 C 
HETATM   51  O           0      -7.953  -7.413   3.968  0.00  0.00    -0.271 OA
BRANCH  50  52
HETATM   52  C           0     -10.227  -7.051   4.689  0.00  0.00     0.177 C 
BRANCH  52  53
HETATM   53  N           0     -10.736  -6.715   6.015  0.00  0.00    -0.346 N 
HETATM   54  H           0     -10.195  -6.093   6.602  0.00  0.00     0.163 HD
HETATM   55  C           0     -11.968  -7.111   6.433  0.00  0.00     0.236 C 
HETATM   56  O           0     -12.733  -7.770   5.734  0.00  0.00    -0.272 OA
BRANCH  55  57
HETATM   57  C           0     -12.389  -6.669   7.841  0.00  0.00     0.225 C 
BRANCH  57  58
HETATM   58  N           0     -12.155  -5.253   8.120  0.00  0.00    -0.351 N 
HETATM   59  H           0     -12.939  -4.625   8.010  0.00  0.00     0.163 HD
HETATM   60  C           0     -11.032  -4.881   8.778  0.00  0.00     0.248 C 
HETATM   61  O           0     -10.153  -5.700   9.068  0.00  0.00    -0.271 OA
BRANCH  60  62
HETATM   62  C           0     -10.800  -3.413   9.155  0.00  0.00     0.275 C 
BRANCH  62  63
HETATM   63  N           0      -9.589  -2.805   8.469  0.00  0.00    -0.066 N 
HETATM   64  H           0      -9.016  -2.242   9.107  0.00  0.00     0.275 HD
HETATM   65  H           0      -8.978  -3.495   8.020  0.00  0.00     0.275 HD
HETATM   66  H           0      -9.901  -2.175   7.723  0.00  0.00     0.275 HD
ENDBRANCH  62  63
BRANCH  62  67
HETATM   67  C           0     -12.012  -2.492   8.935  0.00  0.00     0.053 C 
BRANCH  67  68
HETATM   68  C           0     -11.930  -1.631   7.669  0.00  0.00     0.115 C 
BRANCH  68  69
HETATM   69  C           0     -12.921  -1.965   6.536  0.00  0.00     0.172 C 
HETATM   70  O           0     -13.343  -3.146   6.427  0.00  0.00    -0.648 OA
HETATM   71  O           0     -13.230  -1.000   5.765  0.00  0.00    -0.648 OA
ENDBRANCH  68  69
ENDBRANCH  67  68
ENDBRANCH  62  67
ENDBRANCH  60  62
ENDBRANCH  57  58
ENDBRANCH  55  57
ENDBRANCH  52  53
BRANCH  52  72
HETATM   72  C           0     -10.179  -5.768   3.827  0.00  0.00     0.038 C 
BRANCH  72  73
HETATM   73  C           0     -10.147  -4.423   4.579  0.00  0.00    -0.020 C 
HETATM   74  C           0      -8.718  -3.957   4.892  0.00  0.00     0.009 C 
HETATM   75  C           0     -10.899  -3.366   3.754  0.00  0.00     0.009 C 
ENDBRANCH  72  73
ENDBRANCH  52  72
ENDBRANCH  50  52
ENDBRANCH  41  48
ENDBRANCH   1  41
TORSDOF 28
ENDMDL
MODEL 4
REMARK VINA RESULT:      -3.5      4.572      9.547
REMARK  28 active torsions:
REMARK  status: ('A' for Active; 'I' for Inactive)
REMARK       I    between atoms: C_1  and  N_3 
REMARK    1  A    between atoms: C_1  and  C_41 
REMARK    2  A    between atoms: N_3  and  C_5 
REMARK    3  A    between atoms: C_5  and  C_6 
REMARK    4  A    between atoms: C_5  and  C_18 
REMARK       I    between atoms: C_18  and  N_19 
REMARK    5  A    between atoms: C_20  and  C_25 
REMARK       I    between atoms: C_25  and  N_26 
REMARK    6  A    between atoms: N_26  and  C_29 
REMARK    7  A    between atoms: C_29  and  C_30 
REMARK    8  A    between atoms: C_29  and  C_38 
REMARK       I    between atoms: C_30  and  N_31 
REMARK    9  A    between atoms: N_31  and  C_34 
REMARK   10  A    between atoms: C_34  and  C_35 
REMARK   11  A    between atoms: C_38  and  O_39 
REMARK   12  A    between atoms: C_6  and  C_7 
REMARK   13  A    between atoms: C_7  and  C_8 
REMARK   14  A    between atoms: C_8  and  N_9 
REMARK       I    between atoms: N_9  and  C_10 
REMARK       I    between atoms: C_10  and  N_12 
REMARK   15  A    between atoms: C_41  and  C_42 
REMARK   16  A    between atoms: C_41  and  N_48 
REMARK       I    between atoms: N_48  and  C_50 
REMARK   17  A    between atoms: C_50  and  C_52 
REMARK   18  A    between atoms: C_52  and  N_53 
REMARK   19  A    between atoms: C_52  and  C_72 
REMARK       I    between atoms: N_53  and  C_55 
REMARK   20  A    between atoms: C_55  and  C_57 
REMARK   21  A    between atoms: C_57  and  N_58 
REMARK       I    between atoms: N_58  and  C_60 
REMARK   22  A    between atoms: C_60  and  C_62 
REMARK   23  A    between atoms: C_62  and  N_63 
REMARK   24  A    between atoms: C_62  and  C_67 
REMARK   25  A    between atoms: C_67  and  C_68 
REMARK   26  A    between atoms: C_68  and  C_69 
REMARK   27  A    between atoms: C_72  and  C_73 
REMARK   28  A    between atoms: C_42  and  C_43 
REMARK       I    between atoms: C_43  and  N_44 
ROOT
HETATM    1  C           0      -6.137 -23.531   4.650  0.00  0.00     0.241 C 
HETATM    2  O           0      -5.414 -22.832   3.931  0.00  0.00    -0.271 OA
HETATM    3  N           0      -5.861 -23.730   5.961  0.00  0.00    -0.346 N 
HETATM    4  H           0      -6.458 -24.338   6.508  0.00  0.00     0.163 HD
ENDROOT
BRANCH   3   5
HETATM    5  C           0      -4.799 -22.967   6.614  0.00  0.00     0.176 C 
BRANCH   5   6
HETATM    6  C           0      -5.331 -22.172   7.818  0.00  0.00     0.036 C 
BRANCH   6   7
HETATM    7  C           0      -4.181 -21.531   8.604  0.00  0.00     0.023 C 
BRANCH   7   8
HETATM    8  C           0      -3.919 -20.067   8.248  0.00  0.00     0.138 C 
BRANCH   8   9
HETATM    9  N           0      -2.815 -20.039   7.293  0.00  0.00    -0.227 N 
HETATM   10  C           0      -1.516 -20.072   7.576  0.00  0.00     0.665 C 
HETATM   11  N           0      -1.069 -20.076   8.839  0.00  0.00    -0.235 N 
HETATM   12  N           0      -0.654 -20.114   6.543  0.00  0.00    -0.235 N 
HETATM   13  H           0      -0.094 -20.245   9.039  0.00  0.00     0.174 HD
HETATM   14  H           0      -1.712 -20.125   9.614  0.00  0.00     0.174 HD
HETATM   15  H           0       0.321 -19.897   6.686  0.00  0.00     0.174 HD
HETATM   16  H           0      -1.064 -19.974   5.617  0.00  0.00     0.174 HD
HETATM   17  H           0      -3.022 -19.966   6.283  0.00  0.00     0.177 HD
ENDBRANCH   8   9
ENDBRANCH   7   8
ENDBRANCH   6   7
ENDBRANCH   5   6
BRANCH   5  18
HETATM   18  C           0      -3.514 -23.761   6.934  0.00  0.00     0.243 C 
HETATM   19  N           0      -2.358 -23.503   6.264  0.00  0.00    -0.337 N 
HETATM   20  C           0      -1.119 -24.186   6.673  0.00  0.00     0.179 C 
HETATM   21  C           0      -2.222 -22.962   4.894  0.00  0.00     0.127 C 
HETATM   22  C           0      -0.267 -24.272   5.376  0.00  0.00     0.037 C 
HETATM   23  C           0      -1.257 -23.959   4.243  0.00  0.00     0.022 C 
HETATM   24  O           0      -3.568 -24.578   7.858  0.00  0.00    -0.271 OA
BRANCH  20  25
HETATM   25  C           0      -0.329 -23.483   7.790  0.00  0.00     0.241 C 
HETATM   26  N           0       0.953 -23.120   7.529  0.00  0.00    -0.344 N 
HETATM   27  H           0       1.355 -23.308   6.614  0.00  0.00     0.163 HD
HETATM   28  O           0      -0.879 -23.289   8.877  0.00  0.00    -0.271 OA
BRANCH  26  29
HETATM   29  C           0       1.837 -22.621   8.572  0.00  0.00     0.200 C 
BRANCH  29  30
HETATM   30  C           0       2.772 -21.466   8.163  0.00  0.00     0.242 C 
HETATM   31  N           0       2.356 -20.211   8.384  0.00  0.00    -0.354 N 
HETATM   32  H           0       1.480 -19.993   8.853  0.00  0.00     0.162 HD
HETATM   33  O           0       3.865 -21.741   7.643  0.00  0.00    -0.271 OA
BRANCH  31  34
HETATM   34  C           0       3.159 -19.039   8.091  0.00  0.00     0.203 C 
BRANCH  34  35
HETATM   35  C           0       2.271 -17.762   8.081  0.00  0.00     0.307 C 
HETATM   36  O           0       2.879 -16.659   8.033  0.00  0.00    -0.186 OA
HETATM   37  O           0       1.034 -17.973   8.121  0.00  0.00    -0.186 OA
ENDBRANCH  34  35
ENDBRANCH  31  34
ENDBRANCH  29  30
BRANCH  29  38
HETATM   38  C           0       2.674 -23.765   9.183  0.00  0.00     0.199 C 
BRANCH  38  39
HETATM   39  O           0       2.723 -24.912   8.355  0.00  0.00    -0.398 OA
HETATM   40  H           0       3.426 -25.510   8.661  0.00  0.00     0.209 HD
ENDBRANCH  38  39
ENDBRANCH  29  38
ENDBRANCH  26  29
ENDBRANCH  20  25
ENDBRANCH   5  18
ENDBRANCH   3   5
BRANCH   1  41
HETATM   41  C           0      -7.426 -24.177   4.100  0.00  0.00     0.185 C 
BRANCH  41  42
HETATM   42  C           0      -8.535 -23.142   3.830  0.00  0.00     0.137 C 
BRANCH  42  43
HETATM   43  C           0      -8.776 -22.147   4.965  0.00  0.00     0.217 C 
HETATM   44  N           0      -8.773 -20.854   4.576  0.00  0.00    -0.370 N 
HETATM   45  H           0      -8.823 -20.152   5.301  0.00  0.00     0.159 HD
HETATM   46  H           0      -8.556 -20.565   3.614  0.00  0.00     0.159 HD
HETATM   47  O           0      -8.921 -22.514   6.134  0.00  0.00    -0.274 OA
ENDBRANCH  42  43
ENDBRANCH  41  42
BRANCH  41  48
HETATM   48  N           0      -7.976 -25.172   5.013  0.00  0.00    -0.346 N 
HETATM   49  H           0      -7.821 -25.048   6.005  0.00  0.00     0.163 HD
HETATM   50  C           0      -8.596 -26.299   4.606  0.00  0.00     0.241 C 
HETATM   51  O           0      -8.735 -26.605   3.416  0.00  0.00    -0.271 OA
BRANCH  50  52
HETATM   52  C           0      -9.169 -27.206   5.712  0.00  0.00     0.177 C 
BRANCH  52  53
HETATM   53  N           0      -9.153 -28.617   5.339  0.00  0.00    -0.346 N 
HETATM   54  H           0      -8.290 -29.137   5.438  0.00  0.00     0.163 HD
HETATM   55  C           0     -10.286 -29.280   4.983  0.00  0.00     0.236 C 
HETATM   56  O           0     -11.392 -28.746   4.951  0.00  0.00    -0.272 OA
BRANCH  55  57
HETATM   57  C           0     -10.130 -30.767   4.639  0.00  0.00     0.225 C 
BRANCH  57  58
HETATM   58  N           0     -10.421 -31.674   5.747  0.00  0.00    -0.351 N 
HETATM   59  H           0     -11.298 -32.175   5.716  0.00  0.00     0.163 HD
HETATM   60  C           0      -9.427 -32.031   6.594  0.00  0.00     0.248 C 
HETATM   61  O           0      -8.297 -31.538   6.506  0.00  0.00    -0.271 OA
BRANCH  60  62
HETATM   62  C           0      -9.685 -33.044   7.715  0.00  0.00     0.275 C 
BRANCH  62  63
HETATM   63  N           0     -10.817 -32.631   8.641  0.00  0.00    -0.066 N 
HETATM   64  H           0     -10.481 -32.305   9.553  0.00  0.00     0.275 HD
HETATM   65  H           0     -11.428 -31.908   8.250  0.00  0.00     0.275 HD
HETATM   66  H           0     -11.420 -33.441   8.824  0.00  0.00     0.275 HD
ENDBRANCH  62  63
BRANCH  62  67
HETATM   67  C           0      -9.930 -34.485   7.239  0.00  0.00     0.053 C 
BRANCH  67  68
HETATM   68  C           0      -9.224 -34.847   5.927  0.00  0.00     0.115 C 
BRANCH  68  69
HETATM   69  C           0     -10.126 -35.205   4.729  0.00  0.00     0.172 C 
HETATM   70  O           0     -10.425 -36.412   4.532  0.00  0.00    -0.648 OA
HETATM   71  O           0     -10.493 -34.229   3.998  0.00  0.00    -0.648 OA
ENDBRANCH  68  69
ENDBRANCH  67  68
ENDBRANCH  62  67
ENDBRANCH  60  62
ENDBRANCH  57  58
ENDBRANCH  55  57
ENDBRANCH  52  53
BRANCH  52  72
HETATM   72  C           0      -8.410 -27.028   7.047  0.00  0.00     0.038 C 
BRANCH  72  73
HETATM   73  C           0      -8.547 -28.159   8.084  0.00  0.00    -0.020 C 
HETATM   74  C           0      -7.509 -28.054   9.211  0.00  0.00     0.009 C 
HETATM   75  C           0      -9.975 -28.152   8.653  0.00  0.00     0.009 C 
ENDBRANCH  72  73
ENDBRANCH  52  72
ENDBRANCH  50  52
ENDBRANCH  41  48
ENDBRANCH   1  41
TORSDOF 28
ENDMDL
MODEL 5
REMARK VINA RESULT:      -3.5      3.091      8.514
REMARK  28 active torsions:
REMARK  status: ('A' for Active; 'I' for Inactive)
REMARK       I    between atoms: C_1  and  N_3 
REMARK    1  A    between atoms: C_1  and  C_41 
REMARK    2  A    between atoms: N_3  and  C_5 
REMARK    3  A    between atoms: C_5  and  C_6 
REMARK    4  A    between atoms: C_5  and  C_18 
REMARK       I    between atoms: C_18  and  N_19 
REMARK    5  A    between atoms: C_20  and  C_25 
REMARK       I    between atoms: C_25  and  N_26 
REMARK    6  A    between atoms: N_26  and  C_29 
REMARK    7  A    between atoms: C_29  and  C_30 
REMARK    8  A    between atoms: C_29  and  C_38 
REMARK       I    between atoms: C_30  and  N_31 
REMARK    9  A    between atoms: N_31  and  C_34 
REMARK   10  A    between atoms: C_34  and  C_35 
REMARK   11  A    between atoms: C_38  and  O_39 
REMARK   12  A    between atoms: C_6  and  C_7 
REMARK   13  A    between atoms: C_7  and  C_8 
REMARK   14  A    between atoms: C_8  and  N_9 
REMARK       I    between atoms: N_9  and  C_10 
REMARK       I    between atoms: C_10  and  N_12 
REMARK   15  A    between atoms: C_41  and  C_42 
REMARK   16  A    between atoms: C_41  and  N_48 
REMARK       I    between atoms: N_48  and  C_50 
REMARK   17  A    between atoms: C_50  and  C_52 
REMARK   18  A    between atoms: C_52  and  N_53 
REMARK   19  A    between atoms: C_52  and  C_72 
REMARK       I    between atoms: N_53  and  C_55 
REMARK   20  A    between atoms: C_55  and  C_57 
REMARK   21  A    between atoms: C_57  and  N_58 
REMARK       I    between atoms: N_58  and  C_60 
REMARK   22  A    between atoms: C_60  and  C_62 
REMARK   23  A    between atoms: C_62  and  N_63 
REMARK   24  A    between atoms: C_62  and  C_67 
REMARK   25  A    between atoms: C_67  and  C_68 
REMARK   26  A    between atoms: C_68  and  C_69 
REMARK   27  A    between atoms: C_72  and  C_73 
REMARK   28  A    between atoms: C_42  and  C_43 
REMARK       I    between atoms: C_43  and  N_44 
ROOT
HETATM    1  C           0      -5.579 -19.958   7.487  0.00  0.00     0.241 C 
HETATM    2  O           0      -6.041 -19.118   6.707  0.00  0.00    -0.271 OA
HETATM    3  N           0      -5.678 -21.287   7.244  0.00  0.00    -0.346 N 
HETATM    4  H           0      -5.318 -21.945   7.925  0.00  0.00     0.163 HD
ENDROOT
BRANCH   3   5
HETATM    5  C           0      -6.167 -21.766   5.953  0.00  0.00     0.176 C 
BRANCH   5   6
HETATM    6  C           0      -5.098 -22.582   5.208  0.00  0.00     0.036 C 
BRANCH   6   7
HETATM    7  C           0      -3.702 -21.985   5.423  0.00  0.00     0.023 C 
BRANCH   7   8
HETATM    8  C           0      -2.555 -22.940   5.095  0.00  0.00     0.138 C 
BRANCH   8   9
HETATM    9  N           0      -1.792 -23.146   6.323  0.00  0.00    -0.227 N 
HETATM   10  C           0      -1.919 -24.154   7.181  0.00  0.00     0.665 C 
HETATM   11  N           0      -2.852 -25.103   7.021  0.00  0.00    -0.235 N 
HETATM   12  N           0      -1.064 -24.201   8.219  0.00  0.00    -0.235 N 
HETATM   13  H           0      -2.844 -25.933   7.594  0.00  0.00     0.174 HD
HETATM   14  H           0      -3.441 -25.114   6.203  0.00  0.00     0.174 HD
HETATM   15  H           0      -1.264 -24.787   9.015  0.00  0.00     0.174 HD
HETATM   16  H           0      -0.473 -23.376   8.345  0.00  0.00     0.174 HD
HETATM   17  H           0      -1.083 -22.446   6.601  0.00  0.00     0.177 HD
ENDBRANCH   8   9
ENDBRANCH   7   8
ENDBRANCH   6   7
ENDBRANCH   5   6
BRANCH   5  18
HETATM   18  C           0      -7.546 -22.460   5.984  0.00  0.00     0.243 C 
HETATM   19  N           0      -8.292 -22.564   4.850  0.00  0.00    -0.337 N 
HETATM   20  C           0      -9.545 -23.338   4.880  0.00  0.00     0.179 C 
HETATM   21  C           0      -8.274 -21.657   3.683  0.00  0.00     0.127 C 
HETATM   22  C           0     -10.444 -22.682   3.795  0.00  0.00     0.037 C 
HETATM   23  C           0      -9.761 -21.339   3.492  0.00  0.00     0.022 C 
HETATM   24  O           0      -7.900 -22.969   7.051  0.00  0.00    -0.271 OA
BRANCH  20  25
HETATM   25  C           0      -9.383 -24.843   4.606  0.00  0.00     0.241 C 
HETATM   26  N           0      -9.032 -25.644   5.644  0.00  0.00    -0.344 N 
HETATM   27  H           0      -8.895 -25.242   6.568  0.00  0.00     0.163 HD
HETATM   28  O           0      -9.562 -25.262   3.459  0.00  0.00    -0.271 OA
BRANCH  26  29
HETATM   29  C           0      -8.675 -27.042   5.450  0.00  0.00     0.200 C 
BRANCH  29  30
HETATM   30  C           0      -9.648 -28.073   6.054  0.00  0.00     0.242 C 
HETATM   31  N           0      -9.672 -29.303   5.521  0.00  0.00    -0.354 N 
HETATM   32  H           0      -9.045 -29.595   4.776  0.00  0.00     0.162 HD
HETATM   33  O           0     -10.371 -27.726   7.000  0.00  0.00    -0.271 OA
BRANCH  31  34
HETATM   34  C           0     -10.505 -30.378   6.027  0.00  0.00     0.203 C 
BRANCH  34  35
HETATM   35  C           0      -9.661 -31.356   6.893  0.00  0.00     0.307 C 
HETATM   36  O           0      -8.989 -30.838   7.824  0.00  0.00    -0.186 OA
HETATM   37  O           0      -9.745 -32.565   6.566  0.00  0.00    -0.186 OA
ENDBRANCH  34  35
ENDBRANCH  31  34
ENDBRANCH  29  30
BRANCH  29  38
HETATM   38  C           0      -7.246 -27.325   5.962  0.00  0.00     0.199 C 
BRANCH  38  39
HETATM   39  O           0      -7.212 -28.319   6.969  0.00  0.00    -0.398 OA
HETATM   40  H           0      -7.587 -27.966   7.794  0.00  0.00     0.209 HD
ENDBRANCH  38  39
ENDBRANCH  29  38
ENDBRANCH  26  29
ENDBRANCH  20  25
ENDBRANCH   5  18
ENDBRANCH   3   5
BRANCH   1  41
HETATM   41  C           0      -4.820 -19.533   8.761  0.00  0.00     0.185 C 
BRANCH  41  42
HETATM   42  C           0      -5.465 -18.319   9.455  0.00  0.00     0.137 C 
BRANCH  42  43
HETATM   43  C           0      -5.238 -16.981   8.751  0.00  0.00     0.217 C 
HETATM   44  N           0      -6.355 -16.443   8.216  0.00  0.00    -0.370 N 
HETATM   45  H           0      -6.244 -15.613   7.651  0.00  0.00     0.159 HD
HETATM   46  H           0      -7.261 -16.926   8.221  0.00  0.00     0.159 HD
HETATM   47  O           0      -4.117 -16.474   8.659  0.00  0.00    -0.274 OA
ENDBRANCH  42  43
ENDBRANCH  41  42
BRANCH  41  48
HETATM   48  N           0      -3.431 -19.186   8.483  0.00  0.00    -0.346 N 
HETATM   49  H           0      -3.222 -18.235   8.209  0.00  0.00     0.163 HD
HETATM   50  C           0      -2.422 -20.081   8.478  0.00  0.00     0.241 C 
HETATM   51  O           0      -2.586 -21.290   8.685  0.00  0.00    -0.271 OA
BRANCH  50  52
HETATM   52  C           0      -1.009 -19.523   8.226  0.00  0.00     0.177 C 
BRANCH  52  53
HETATM   53  N           0      -0.312 -20.234   7.159  0.00  0.00    -0.346 N 
HETATM   54  H           0      -0.573 -20.051   6.198  0.00  0.00     0.163 HD
HETATM   55  C           0       0.757 -21.037   7.409  0.00  0.00     0.236 C 
HETATM   56  O           0       1.209 -21.218   8.537  0.00  0.00    -0.272 OA
BRANCH  55  57
HETATM   57  C           0       1.413 -21.706   6.193  0.00  0.00     0.225 C 
BRANCH  57  58
HETATM   58  N           0       2.477 -22.649   6.527  0.00  0.00    -0.351 N 
HETATM   59  H           0       3.284 -22.282   7.011  0.00  0.00     0.163 HD
HETATM   60  C           0       2.235 -23.979   6.454  0.00  0.00     0.248 C 
HETATM   61  O           0       1.163 -24.417   6.023  0.00  0.00    -0.271 OA
BRANCH  60  62
HETATM   62  C           0       3.307 -24.990   6.877  0.00  0.00     0.275 C 
BRANCH  62  63
HETATM   63  N           0       2.815 -25.978   7.922  0.00  0.00    -0.066 N 
HETATM   64  H           0       2.689 -26.922   7.542  0.00  0.00     0.275 HD
HETATM   65  H           0       3.421 -26.045   8.745  0.00  0.00     0.275 HD
HETATM   66  H           0       1.899 -25.677   8.270  0.00  0.00     0.275 HD
ENDBRANCH  62  63
BRANCH  62  67
HETATM   67  C           0       3.950 -25.771   5.718  0.00  0.00     0.053 C 
BRANCH  67  68
HETATM   68  C           0       3.736 -27.288   5.781  0.00  0.00     0.115 C 
BRANCH  68  69
HETATM   69  C           0       2.483 -27.842   5.074  0.00  0.00     0.172 C 
HETATM   70  O           0       1.363 -27.719   5.637  0.00  0.00    -0.648 OA
HETATM   71  O           0       2.683 -28.415   3.955  0.00  0.00    -0.648 OA
ENDBRANCH  68  69
ENDBRANCH  67  68
ENDBRANCH  62  67
ENDBRANCH  60  62
ENDBRANCH  57  58
ENDBRANCH  55  57
ENDBRANCH  52  53
BRANCH  52  72
HETATM   72  C           0      -1.042 -18.014   7.888  0.00  0.00     0.038 C 
BRANCH  72  73
HETATM   73  C           0      -0.098 -17.098   8.690  0.00  0.00    -0.020 C 
HETATM   74  C           0       1.353 -17.167   8.192  0.00  0.00     0.009 C 
HETATM   75  C           0      -0.628 -15.656   8.635  0.00  0.00     0.009 C 
ENDBRANCH  72  73
ENDBRANCH  52  72
ENDBRANCH  50  52
ENDBRANCH  41  48
ENDBRANCH   1  41
TORSDOF 28
ENDMDL
MODEL 6
REMARK VINA RESULT:      -3.4      3.339      8.901
REMARK  28 active torsions:
REMARK  status: ('A' for Active; 'I' for Inactive)
REMARK       I    between atoms: C_1  and  N_3 
REMARK    1  A    between atoms: C_1  and  C_41 
REMARK    2  A    between atoms: N_3  and  C_5 
REMARK    3  A    between atoms: C_5  and  C_6 
REMARK    4  A    between atoms: C_5  and  C_18 
REMARK       I    between atoms: C_18  and  N_19 
REMARK    5  A    between atoms: C_20  and  C_25 
REMARK       I    between atoms: C_25  and  N_26 
REMARK    6  A    between atoms: N_26  and  C_29 
REMARK    7  A    between atoms: C_29  and  C_30 
REMARK    8  A    between atoms: C_29  and  C_38 
REMARK       I    between atoms: C_30  and  N_31 
REMARK    9  A    between atoms: N_31  and  C_34 
REMARK   10  A    between atoms: C_34  and  C_35 
REMARK   11  A    between atoms: C_38  and  O_39 
REMARK   12  A    between atoms: C_6  and  C_7 
REMARK   13  A    between atoms: C_7  and  C_8 
REMARK   14  A    between atoms: C_8  and  N_9 
REMARK       I    between atoms: N_9  and  C_10 
REMARK       I    between atoms: C_10  and  N_12 
REMARK   15  A    between atoms: C_41  and  C_42 
REMARK   16  A    between atoms: C_41  and  N_48 
REMARK       I    between atoms: N_48  and  C_50 
REMARK   17  A    between atoms: C_50  and  C_52 
REMARK   18  A    between atoms: C_52  and  N_53 
REMARK   19  A    between atoms: C_52  and  C_72 
REMARK       I    between atoms: N_53  and  C_55 
REMARK   20  A    between atoms: C_55  and  C_57 
REMARK   21  A    between atoms: C_57  and  N_58 
REMARK       I    between atoms: N_58  and  C_60 
REMARK   22  A    between atoms: C_60  and  C_62 
REMARK   23  A    between atoms: C_62  and  N_63 
REMARK   24  A    between atoms: C_62  and  C_67 
REMARK   25  A    between atoms: C_67  and  C_68 
REMARK   26  A    between atoms: C_68  and  C_69 
REMARK   27  A    between atoms: C_72  and  C_73 
REMARK   28  A    between atoms: C_42  and  C_43 
REMARK       I    between atoms: C_43  and  N_44 
ROOT
HETATM    1  C           0      -5.837 -20.275   7.290  0.00  0.00     0.241 C 
HETATM    2  O           0      -5.695 -19.493   6.344  0.00  0.00    -0.271 OA
HETATM    3  N           0      -6.343 -21.519   7.118  0.00  0.00    -0.346 N 
HETATM    4  H           0      -6.477 -22.118   7.924  0.00  0.00     0.163 HD
ENDROOT
BRANCH   3   5
HETATM    5  C           0      -6.561 -22.046   5.772  0.00  0.00     0.176 C 
BRANCH   5   6
HETATM    6  C           0      -5.428 -22.993   5.343  0.00  0.00     0.036 C 
BRANCH   6   7
HETATM    7  C           0      -4.696 -23.562   6.564  0.00  0.00     0.023 C 
BRANCH   7   8
HETATM    8  C           0      -4.783 -25.083   6.694  0.00  0.00     0.138 C 
BRANCH   8   9
HETATM    9  N           0      -6.190 -25.427   6.885  0.00  0.00    -0.227 N 
HETATM   10  C           0      -6.820 -25.589   8.045  0.00  0.00     0.665 C 
HETATM   11  N           0      -6.174 -25.504   9.216  0.00  0.00    -0.235 N 
HETATM   12  N           0      -8.143 -25.832   8.007  0.00  0.00    -0.235 N 
HETATM   13  H           0      -6.687 -25.486  10.085  0.00  0.00     0.174 HD
HETATM   14  H           0      -5.201 -25.245   9.251  0.00  0.00     0.174 HD
HETATM   15  H           0      -8.616 -26.198   8.819  0.00  0.00     0.174 HD
HETATM   16  H           0      -8.534 -26.013   7.080  0.00  0.00     0.174 HD
HETATM   17  H           0      -6.788 -25.590   6.057  0.00  0.00     0.177 HD
ENDBRANCH   8   9
ENDBRANCH   7   8
ENDBRANCH   6   7
ENDBRANCH   5   6
BRANCH   5  18
HETATM   18  C           0      -7.968 -22.627   5.508  0.00  0.00     0.243 C 
HETATM   19  N           0      -8.479 -22.651   4.248  0.00  0.00    -0.337 N 
HETATM   20  C           0      -9.768 -23.321   4.005  0.00  0.00     0.179 C 
HETATM   21  C           0      -8.160 -21.729   3.137  0.00  0.00     0.127 C 
HETATM   22  C           0     -10.380 -22.576   2.786  0.00  0.00     0.037 C 
HETATM   23  C           0      -9.550 -21.288   2.667  0.00  0.00     0.022 C 
HETATM   24  O           0      -8.565 -23.122   6.469  0.00  0.00    -0.271 OA
BRANCH  20  25
HETATM   25  C           0      -9.671 -24.829   3.719  0.00  0.00     0.241 C 
HETATM   26  N           0      -9.636 -25.676   4.780  0.00  0.00    -0.344 N 
HETATM   27  H           0      -9.685 -25.303   5.725  0.00  0.00     0.163 HD
HETATM   28  O           0      -9.613 -25.210   2.548  0.00  0.00    -0.271 OA
BRANCH  26  29
HETATM   29  C           0      -9.359 -27.096   4.621  0.00  0.00     0.200 C 
BRANCH  29  30
HETATM   30  C           0     -10.004 -28.026   5.667  0.00  0.00     0.242 C 
HETATM   31  N           0     -10.216 -29.305   5.326  0.00  0.00    -0.354 N 
HETATM   32  H           0      -9.926 -29.695   4.432  0.00  0.00     0.162 HD
HETATM   33  O           0     -10.304 -27.558   6.776  0.00  0.00    -0.271 OA
BRANCH  31  34
HETATM   34  C           0     -10.769 -30.294   6.232  0.00  0.00     0.203 C 
BRANCH  34  35
HETATM   35  C           0      -9.630 -31.116   6.899  0.00  0.00     0.307 C 
HETATM   36  O           0      -8.479 -30.602   6.867  0.00  0.00    -0.186 OA
HETATM   37  O           0      -9.985 -32.210   7.401  0.00  0.00    -0.186 OA
ENDBRANCH  34  35
ENDBRANCH  31  34
ENDBRANCH  29  30
BRANCH  29  38
HETATM   38  C           0      -7.839 -27.362   4.567  0.00  0.00     0.199 C 
BRANCH  38  39
HETATM   39  O           0      -7.362 -28.048   5.709  0.00  0.00    -0.398 OA
HETATM   40  H           0      -7.103 -27.408   6.394  0.00  0.00     0.209 HD
ENDBRANCH  38  39
ENDBRANCH  29  38
ENDBRANCH  26  29
ENDBRANCH  20  25
ENDBRANCH   5  18
ENDBRANCH   3   5
BRANCH   1  41
HETATM   41  C           0      -5.396 -19.890   8.718  0.00  0.00     0.185 C 
BRANCH  41  42
HETATM   42  C           0      -6.146 -18.655   9.254  0.00  0.00     0.137 C 
BRANCH  42  43
HETATM   43  C           0      -5.813 -17.343   8.544  0.00  0.00     0.217 C 
HETATM   44  N           0      -6.828 -16.841   7.808  0.00  0.00    -0.370 N 
HETATM   45  H           0      -6.630 -16.033   7.236  0.00  0.00     0.159 HD
HETATM   46  H           0      -7.720 -17.336   7.681  0.00  0.00     0.159 HD
HETATM   47  O           0      -4.696 -16.825   8.619  0.00  0.00    -0.274 OA
ENDBRANCH  42  43
ENDBRANCH  41  42
BRANCH  41  48
HETATM   48  N           0      -3.970 -19.596   8.793  0.00  0.00    -0.346 N 
HETATM   49  H           0      -3.652 -18.688   8.481  0.00  0.00     0.163 HD
HETATM   50  C           0      -3.038 -20.498   9.165  0.00  0.00     0.241 C 
HETATM   51  O           0      -3.306 -21.671   9.454  0.00  0.00    -0.271 OA
BRANCH  50  52
HETATM   52  C           0      -1.585 -19.992   9.247  0.00  0.00     0.177 C 
BRANCH  52  53
HETATM   53  N           0      -0.852 -20.203   8.003  0.00  0.00    -0.346 N 
HETATM   54  H           0      -0.815 -19.452   7.325  0.00  0.00     0.163 HD
HETATM   55  C           0      -0.115 -21.326   7.784  0.00  0.00     0.236 C 
HETATM   56  O           0      -0.015 -22.232   8.607  0.00  0.00    -0.272 OA
BRANCH  55  57
HETATM   57  C           0       0.626 -21.408   6.443  0.00  0.00     0.225 C 
BRANCH  57  58
HETATM   58  N           0       0.650 -22.744   5.851  0.00  0.00    -0.351 N 
HETATM   59  H           0       1.433 -23.338   6.083  0.00  0.00     0.163 HD
HETATM   60  C           0      -0.473 -23.237   5.277  0.00  0.00     0.248 C 
HETATM   61  O           0      -1.493 -22.550   5.160  0.00  0.00    -0.271 OA
BRANCH  60  62
HETATM   62  C           0      -0.501 -24.666   4.721  0.00  0.00     0.275 C 
BRANCH  62  63
HETATM   63  N           0       0.262 -24.811   3.415  0.00  0.00    -0.066 N 
HETATM   64  H           0       0.434 -23.910   2.956  0.00  0.00     0.275 HD
HETATM   65  H           0       1.161 -25.294   3.513  0.00  0.00     0.275 HD
HETATM   66  H           0      -0.290 -25.373   2.759  0.00  0.00     0.275 HD
ENDBRANCH  62  63
BRANCH  62  67
HETATM   67  C           0      -0.021 -25.748   5.702  0.00  0.00     0.053 C 
BRANCH  67  68
HETATM   68  C           0       1.149 -26.595   5.187  0.00  0.00     0.115 C 
BRANCH  68  69
HETATM   69  C           0       2.567 -26.124   5.566  0.00  0.00     0.172 C 
HETATM   70  O           0       2.776 -24.892   5.725  0.00  0.00    -0.648 OA
HETATM   71  O           0       3.447 -27.038   5.672  0.00  0.00    -0.648 OA
ENDBRANCH  68  69
ENDBRANCH  67  68
ENDBRANCH  62  67
ENDBRANCH  60  62
ENDBRANCH  57  58
ENDBRANCH  55  57
ENDBRANCH  52  53
BRANCH  52  72
HETATM   72  C           0      -1.522 -18.494   9.622  0.00  0.00     0.038 C 
BRANCH  72  73
HETATM   73  C           0      -0.592 -17.602   8.778  0.00  0.00    -0.020 C 
HETATM   74  C           0      -1.229 -16.248   8.432  0.00  0.00     0.009 C 
HETATM   75  C           0       0.736 -17.406   9.527  0.00  0.00     0.009 C 
ENDBRANCH  72  73
ENDBRANCH  52  72
ENDBRANCH  50  52
ENDBRANCH  41  48
ENDBRANCH   1  41
TORSDOF 28
ENDMDL
MODEL 7
REMARK VINA RESULT:      -3.3      3.418      7.749
REMARK  28 active torsions:
REMARK  status: ('A' for Active; 'I' for Inactive)
REMARK       I    between atoms: C_1  and  N_3 
REMARK    1  A    between atoms: C_1  and  C_41 
REMARK    2  A    between atoms: N_3  and  C_5 
REMARK    3  A    between atoms: C_5  and  C_6 
REMARK    4  A    between atoms: C_5  and  C_18 
REMARK       I    between atoms: C_18  and  N_19 
REMARK    5  A    between atoms: C_20  and  C_25 
REMARK       I    between atoms: C_25  and  N_26 
REMARK    6  A    between atoms: N_26  and  C_29 
REMARK    7  A    between atoms: C_29  and  C_30 
REMARK    8  A    between atoms: C_29  and  C_38 
REMARK       I    between atoms: C_30  and  N_31 
REMARK    9  A    between atoms: N_31  and  C_34 
REMARK   10  A    between atoms: C_34  and  C_35 
REMARK   11  A    between atoms: C_38  and  O_39 
REMARK   12  A    between atoms: C_6  and  C_7 
REMARK   13  A    between atoms: C_7  and  C_8 
REMARK   14  A    between atoms: C_8  and  N_9 
REMARK       I    between atoms: N_9  and  C_10 
REMARK       I    between atoms: C_10  and  N_12 
REMARK   15  A    between atoms: C_41  and  C_42 
REMARK   16  A    between atoms: C_41  and  N_48 
REMARK       I    between atoms: N_48  and  C_50 
REMARK   17  A    between atoms: C_50  and  C_52 
REMARK   18  A    between atoms: C_52  and  N_53 
REMARK   19  A    between atoms: C_52  and  C_72 
REMARK       I    between atoms: N_53  and  C_55 
REMARK   20  A    between atoms: C_55  and  C_57 
REMARK   21  A    between atoms: C_57  and  N_58 
REMARK       I    between atoms: N_58  and  C_60 
REMARK   22  A    between atoms: C_60  and  C_62 
REMARK   23  A    between atoms: C_62  and  N_63 
REMARK   24  A    between atoms: C_62  and  C_67 
REMARK   25  A    between atoms: C_67  and  C_68 
REMARK   26  A    between atoms: C_68  and  C_69 
REMARK   27  A    between atoms: C_72  and  C_73 
REMARK   28  A    between atoms: C_42  and  C_43 
REMARK       I    between atoms: C_43  and  N_44 
ROOT
HETATM    1  C           0      -3.866 -20.992   6.405  0.00  0.00     0.241 C 
HETATM    2  O           0      -4.317 -19.946   5.926  0.00  0.00    -0.271 OA
HETATM    3  N           0      -4.326 -22.207   6.024  0.00  0.00    -0.346 N 
HETATM    4  H           0      -3.956 -23.040   6.466  0.00  0.00     0.163 HD
ENDROOT
BRANCH   3   5
HETATM    5  C           0      -5.239 -22.326   4.889  0.00  0.00     0.176 C 
BRANCH   5   6
HETATM    6  C           0      -4.572 -23.027   3.694  0.00  0.00     0.036 C 
BRANCH   6   7
HETATM    7  C           0      -3.386 -23.884   4.152  0.00  0.00     0.023 C 
BRANCH   7   8
HETATM    8  C           0      -3.730 -25.356   4.385  0.00  0.00     0.138 C 
BRANCH   8   9
HETATM    9  N           0      -3.272 -25.705   5.727  0.00  0.00    -0.227 N 
HETATM   10  C           0      -4.034 -25.973   6.784  0.00  0.00     0.665 C 
HETATM   11  N           0      -5.370 -25.887   6.731  0.00  0.00    -0.235 N 
HETATM   12  N           0      -3.415 -26.349   7.919  0.00  0.00    -0.235 N 
HETATM   13  H           0      -5.938 -26.230   7.491  0.00  0.00     0.174 HD
HETATM   14  H           0      -5.839 -25.683   5.863  0.00  0.00     0.174 HD
HETATM   15  H           0      -3.909 -26.327   8.798  0.00  0.00     0.174 HD
HETATM   16  H           0      -2.396 -26.262   7.919  0.00  0.00     0.174 HD
HETATM   17  H           0      -2.257 -25.738   5.923  0.00  0.00     0.177 HD
ENDBRANCH   8   9
ENDBRANCH   7   8
ENDBRANCH   6   7
ENDBRANCH   5   6
BRANCH   5  18
HETATM   18  C           0      -6.637 -22.895   5.221  0.00  0.00     0.243 C 
HETATM   19  N           0      -7.622 -22.894   4.283  0.00  0.00    -0.337 N 
HETATM   20  C           0      -8.905 -23.554   4.585  0.00  0.00     0.179 C 
HETATM   21  C           0      -7.779 -21.955   3.152  0.00  0.00     0.127 C 
HETATM   22  C           0      -9.956 -22.784   3.737  0.00  0.00     0.037 C 
HETATM   23  C           0      -9.234 -21.499   3.303  0.00  0.00     0.022 C 
HETATM   24  O           0      -6.791 -23.403   6.335  0.00  0.00    -0.271 OA
BRANCH  20  25
HETATM   25  C           0      -8.952 -25.057   4.264  0.00  0.00     0.241 C 
HETATM   26  N           0      -8.469 -25.920   5.194  0.00  0.00    -0.344 N 
HETATM   27  H           0      -8.102 -25.563   6.073  0.00  0.00     0.163 HD
HETATM   28  O           0      -9.408 -25.420   3.177  0.00  0.00    -0.271 OA
BRANCH  26  29
HETATM   29  C           0      -8.299 -27.338   4.912  0.00  0.00     0.200 C 
BRANCH  29  30
HETATM   30  C           0      -8.278 -28.269   6.140  0.00  0.00     0.242 C 
HETATM   31  N           0      -8.629 -29.551   5.964  0.00  0.00    -0.354 N 
HETATM   32  H           0      -8.856 -29.942   5.053  0.00  0.00     0.162 HD
HETATM   33  O           0      -7.945 -27.799   7.238  0.00  0.00    -0.271 OA
BRANCH  31  34
HETATM   34  C           0      -8.605 -30.540   7.025  0.00  0.00     0.203 C 
BRANCH  34  35
HETATM   35  C           0      -9.942 -31.334   7.056  0.00  0.00     0.307 C 
HETATM   36  O           0     -10.949 -30.751   6.570  0.00  0.00    -0.186 OA
HETATM   37  O           0      -9.872 -32.478   7.566  0.00  0.00    -0.186 OA
ENDBRANCH  34  35
ENDBRANCH  31  34
ENDBRANCH  29  30
BRANCH  29  38
HETATM   38  C           0      -7.035 -27.586   4.060  0.00  0.00     0.199 C 
BRANCH  38  39
HETATM   39  O           0      -5.985 -28.183   4.798  0.00  0.00    -0.398 OA
HETATM   40  H           0      -5.846 -29.096   4.494  0.00  0.00     0.209 HD
ENDBRANCH  38  39
ENDBRANCH  29  38
ENDBRANCH  26  29
ENDBRANCH  20  25
ENDBRANCH   5  18
ENDBRANCH   3   5
BRANCH   1  41
HETATM   41  C           0      -2.716 -20.970   7.434  0.00  0.00     0.185 C 
BRANCH  41  42
HETATM   42  C           0      -2.452 -19.559   7.993  0.00  0.00     0.137 C 
BRANCH  42  43
HETATM   43  C           0      -0.997 -19.279   8.370  0.00  0.00     0.217 C 
HETATM   44  N           0      -0.383 -18.383   7.568  0.00  0.00    -0.370 N 
HETATM   45  H           0       0.608 -18.239   7.708  0.00  0.00     0.159 HD
HETATM   46  H           0      -0.833 -17.981   6.737  0.00  0.00     0.159 HD
HETATM   47  O           0      -0.442 -19.860   9.306  0.00  0.00    -0.274 OA
ENDBRANCH  42  43
ENDBRANCH  41  42
BRANCH  41  48
HETATM   48  N           0      -1.462 -21.453   6.868  0.00  0.00    -0.346 N 
HETATM   49  H           0      -0.891 -20.802   6.346  0.00  0.00     0.163 HD
HETATM   50  C           0      -1.065 -22.741   6.919  0.00  0.00     0.241 C 
HETATM   51  O           0      -1.743 -23.641   7.430  0.00  0.00    -0.271 OA
BRANCH  50  52
HETATM   52  C           0       0.320 -23.058   6.323  0.00  0.00     0.177 C 
BRANCH  52  53
HETATM   53  N           0       0.233 -23.600   4.970  0.00  0.00    -0.346 N 
HETATM   54  H           0       0.383 -22.979   4.185  0.00  0.00     0.163 HD
HETATM   55  C           0       0.082 -24.932   4.738  0.00  0.00     0.236 C 
HETATM   56  O           0       0.010 -25.765   5.638  0.00  0.00    -0.272 OA
BRANCH  55  57
HETATM   57  C           0       0.030 -25.370   3.268  0.00  0.00     0.225 C 
BRANCH  57  58
HETATM   58  N           0      -0.872 -26.490   3.007  0.00  0.00    -0.351 N 
HETATM   59  H           0      -1.807 -26.267   2.697  0.00  0.00     0.163 HD
HETATM   60  C           0      -0.366 -27.741   2.902  0.00  0.00     0.248 C 
HETATM   61  O           0       0.830 -27.973   3.111  0.00  0.00    -0.271 OA
BRANCH  60  62
HETATM   62  C           0      -1.277 -28.923   2.548  0.00  0.00     0.275 C 
BRANCH  62  63
HETATM   63  N           0      -0.621 -30.273   2.787  0.00  0.00    -0.066 N 
HETATM   64  H           0       0.399 -30.239   2.680  0.00  0.00     0.275 HD
HETATM   65  H           0      -0.831 -30.678   3.704  0.00  0.00     0.275 HD
HETATM   66  H           0      -0.966 -30.946   2.094  0.00  0.00     0.275 HD
ENDBRANCH  62  63
BRANCH  62  67
HETATM   67  C           0      -2.650 -28.907   3.239  0.00  0.00     0.053 C 
BRANCH  67  68
HETATM   68  C           0      -2.765 -29.851   4.442  0.00  0.00     0.115 C 
BRANCH  68  69
HETATM   69  C           0      -2.761 -29.200   5.839  0.00  0.00     0.172 C 
HETATM   70  O           0      -1.776 -28.492   6.177  0.00  0.00    -0.648 OA
HETATM   71  O           0      -3.772 -29.450   6.572  0.00  0.00    -0.648 OA
ENDBRANCH  68  69
ENDBRANCH  67  68
ENDBRANCH  62  67
ENDBRANCH  60  62
ENDBRANCH  57  58
ENDBRANCH  55  57
ENDBRANCH  52  53
BRANCH  52  72
HETATM   72  C           0       1.234 -21.812   6.308  0.00  0.00     0.038 C 
BRANCH  72  73
HETATM   73  C           0       2.571 -21.917   7.067  0.00  0.00    -0.020 C 
HETATM   74  C           0       2.795 -20.745   8.033  0.00  0.00     0.009 C 
HETATM   75  C           0       2.622 -23.260   7.814  0.00  0.00     0.009 C 
ENDBRANCH  72  73
ENDBRANCH  52  72
ENDBRANCH  50  52
ENDBRANCH  41  48
ENDBRANCH   1  41
TORSDOF 28
ENDMDL
MODEL 8
REMARK VINA RESULT:      -3.3     23.665     29.925
REMARK  28 active torsions:
REMARK  status: ('A' for Active; 'I' for Inactive)
REMARK       I    between atoms: C_1  and  N_3 
REMARK    1  A    between atoms: C_1  and  C_41 
REMARK    2  A    between atoms: N_3  and  C_5 
REMARK    3  A    between atoms: C_5  and  C_6 
REMARK    4  A    between atoms: C_5  and  C_18 
REMARK       I    between atoms: C_18  and  N_19 
REMARK    5  A    between atoms: C_20  and  C_25 
REMARK       I    between atoms: C_25  and  N_26 
REMARK    6  A    between atoms: N_26  and  C_29 
REMARK    7  A    between atoms: C_29  and  C_30 
REMARK    8  A    between atoms: C_29  and  C_38 
REMARK       I    between atoms: C_30  and  N_31 
REMARK    9  A    between atoms: N_31  and  C_34 
REMARK   10  A    between atoms: C_34  and  C_35 
REMARK   11  A    between atoms: C_38  and  O_39 
REMARK   12  A    between atoms: C_6  and  C_7 
REMARK   13  A    between atoms: C_7  and  C_8 
REMARK   14  A    between atoms: C_8  and  N_9 
REMARK       I    between atoms: N_9  and  C_10 
REMARK       I    between atoms: C_10  and  N_12 
REMARK   15  A    between atoms: C_41  and  C_42 
REMARK   16  A    between atoms: C_41  and  N_48 
REMARK       I    between atoms: N_48  and  C_50 
REMARK   17  A    between atoms: C_50  and  C_52 
REMARK   18  A    between atoms: C_52  and  N_53 
REMARK   19  A    between atoms: C_52  and  C_72 
REMARK       I    between atoms: N_53  and  C_55 
REMARK   20  A    between atoms: C_55  and  C_57 
REMARK   21  A    between atoms: C_57  and  N_58 
REMARK       I    between atoms: N_58  and  C_60 
REMARK   22  A    between atoms: C_60  and  C_62 
REMARK   23  A    between atoms: C_62  and  N_63 
REMARK   24  A    between atoms: C_62  and  C_67 
REMARK   25  A    between atoms: C_67  and  C_68 
REMARK   26  A    between atoms: C_68  and  C_69 
REMARK   27  A    between atoms: C_72  and  C_73 
REMARK   28  A    between atoms: C_42  and  C_43 
REMARK       I    between atoms: C_43  and  N_44 
ROOT
HETATM    1  C           0      12.864   0.187   5.293  0.00  0.00     0.241 C 
HETATM    2  O           0      13.760   0.754   4.659  0.00  0.00    -0.271 OA
HETATM    3  N           0      13.091  -0.958   5.979  0.00  0.00    -0.346 N 
HETATM    4  H           0      12.322  -1.412   6.457  0.00  0.00     0.163 HD
ENDROOT
BRANCH   3   5
HETATM    5  C           0      14.454  -1.457   6.149  0.00  0.00     0.176 C 
BRANCH   5   6
HETATM    6  C           0      14.767  -1.761   7.624  0.00  0.00     0.036 C 
BRANCH   6   7
HETATM    7  C           0      14.717  -0.485   8.471  0.00  0.00     0.023 C 
BRANCH   7   8
HETATM    8  C           0      15.857   0.495   8.194  0.00  0.00     0.138 C 
BRANCH   8   9
HETATM    9  N           0      15.419   1.387   7.124  0.00  0.00    -0.227 N 
HETATM   10  C           0      15.151   2.685   7.228  0.00  0.00     0.665 C 
HETATM   11  N           0      15.205   3.324   8.404  0.00  0.00    -0.235 N 
HETATM   12  N           0      14.830   3.348   6.101  0.00  0.00    -0.235 N 
HETATM   13  H           0      15.141   4.330   8.446  0.00  0.00     0.174 HD
HETATM   14  H           0      15.521   2.850   9.235  0.00  0.00     0.174 HD
HETATM   15  H           0      14.389   4.253   6.152  0.00  0.00     0.174 HD
HETATM   16  H           0      14.680   2.768   5.272  0.00  0.00     0.174 HD
HETATM   17  H           0      15.268   1.003   6.175  0.00  0.00     0.177 HD
ENDBRANCH   8   9
ENDBRANCH   7   8
ENDBRANCH   6   7
ENDBRANCH   5   6
BRANCH   5  18
HETATM   18  C           0      14.864  -2.601   5.195  0.00  0.00     0.243 C 
HETATM   19  N           0      16.166  -2.765   4.835  0.00  0.00    -0.337 N 
HETATM   20  C           0      16.548  -3.935   4.025  0.00  0.00     0.179 C 
HETATM   21  C           0      17.210  -1.721   4.757  0.00  0.00     0.127 C 
HETATM   22  C           0      17.789  -3.469   3.214  0.00  0.00     0.037 C 
HETATM   23  C           0      17.787  -1.938   3.354  0.00  0.00     0.022 C 
HETATM   24  O           0      13.980  -3.385   4.839  0.00  0.00    -0.271 OA
BRANCH  20  25
HETATM   25  C           0      16.877  -5.202   4.832  0.00  0.00     0.241 C 
HETATM   26  N           0      15.845  -5.988   5.230  0.00  0.00    -0.344 N 
HETATM   27  H           0      14.892  -5.733   4.983  0.00  0.00     0.163 HD
HETATM   28  O           0      18.056  -5.448   5.099  0.00  0.00    -0.271 OA
BRANCH  26  29
HETATM   29  C           0      16.036  -7.100   6.150  0.00  0.00     0.200 C 
BRANCH  29  30
HETATM   30  C           0      15.090  -8.301   5.956  0.00  0.00     0.242 C 
HETATM   31  N           0      15.275  -9.379   6.731  0.00  0.00    -0.354 N 
HETATM   32  H           0      15.974  -9.417   7.468  0.00  0.00     0.162 HD
HETATM   33  O           0      14.202  -8.226   5.093  0.00  0.00    -0.271 OA
BRANCH  31  34
HETATM   34  C           0      14.425 -10.554   6.683  0.00  0.00     0.203 C 
BRANCH  34  35
HETATM   35  C           0      13.556 -10.648   7.969  0.00  0.00     0.307 C 
HETATM   36  O           0      12.984 -11.752   8.177  0.00  0.00    -0.186 OA
HETATM   37  O           0      13.520  -9.605   8.666  0.00  0.00    -0.186 OA
ENDBRANCH  34  35
ENDBRANCH  31  34
ENDBRANCH  29  30
BRANCH  29  38
HETATM   38  C           0      15.965  -6.624   7.617  0.00  0.00     0.199 C 
BRANCH  38  39
HETATM   39  O           0      14.814  -7.097   8.292  0.00  0.00    -0.398 OA
HETATM   40  H           0      14.644  -8.022   8.045  0.00  0.00     0.209 HD
ENDBRANCH  38  39
ENDBRANCH  29  38
ENDBRANCH  26  29
ENDBRANCH  20  25
ENDBRANCH   5  18
ENDBRANCH   3   5
BRANCH   1  41
HETATM   41  C           0      11.443   0.783   5.374  0.00  0.00     0.185 C 
BRANCH  41  42
HETATM   42  C           0      10.888   1.177   3.992  0.00  0.00     0.137 C 
BRANCH  42  43
HETATM   43  C           0      10.274   0.027   3.195  0.00  0.00     0.217 C 
HETATM   44  N           0       8.930  -0.062   3.300  0.00  0.00    -0.370 N 
HETATM   45  H           0       8.485  -0.865   2.878  0.00  0.00     0.159 HD
HETATM   46  H           0       8.381   0.547   3.919  0.00  0.00     0.159 HD
HETATM   47  O           0      10.967  -0.762   2.548  0.00  0.00    -0.274 OA
ENDBRANCH  42  43
ENDBRANCH  41  42
BRANCH  41  48
HETATM   48  N           0      11.393   1.972   6.217  0.00  0.00    -0.346 N 
HETATM   49  H           0      11.466   2.877   5.771  0.00  0.00     0.163 HD
HETATM   50  C           0      11.351   1.933   7.564  0.00  0.00     0.241 C 
HETATM   51  O           0      11.376   0.881   8.214  0.00  0.00    -0.271 OA
BRANCH  50  52
HETATM   52  C           0      11.238   3.289   8.288  0.00  0.00     0.177 C 
BRANCH  52  53
HETATM   53  N           0      11.404   4.420   7.380  0.00  0.00    -0.346 N 
HETATM   54  H           0      10.762   4.520   6.604  0.00  0.00     0.163 HD
HETATM   55  C           0      12.311   5.405   7.618  0.00  0.00     0.236 C 
HETATM   56  O           0      13.046   5.415   8.602  0.00  0.00    -0.272 OA
BRANCH  55  57
HETATM   57  C           0      12.364   6.549   6.596  0.00  0.00     0.225 C 
BRANCH  57  58
HETATM   58  N           0      13.453   6.437   5.628  0.00  0.00    -0.351 N 
HETATM   59  H           0      13.835   5.516   5.466  0.00  0.00     0.163 HD
HETATM   60  C           0      13.708   7.471   4.791  0.00  0.00     0.248 C 
HETATM   61  O           0      13.100   8.542   4.885  0.00  0.00    -0.271 OA
BRANCH  60  62
HETATM   62  C           0      14.790   7.350   3.711  0.00  0.00     0.275 C 
BRANCH  62  63
HETATM   63  N           0      15.421   8.685   3.349  0.00  0.00    -0.066 N 
HETATM   64  H           0      14.762   9.467   3.432  0.00  0.00     0.275 HD
HETATM   65  H           0      16.254   8.911   3.900  0.00  0.00     0.275 HD
HETATM   66  H           0      15.726   8.662   2.371  0.00  0.00     0.275 HD
ENDBRANCH  62  63
BRANCH  62  67
HETATM   67  C           0      15.906   6.341   4.027  0.00  0.00     0.053 C 
BRANCH  67  68
HETATM   68  C           0      17.061   6.913   4.857  0.00  0.00     0.115 C 
BRANCH  68  69
HETATM   69  C           0      17.166   6.440   6.320  0.00  0.00     0.172 C 
HETATM   70  O           0      18.270   6.546   6.916  0.00  0.00    -0.648 OA
HETATM   71  O           0      16.105   5.946   6.822  0.00  0.00    -0.648 OA
ENDBRANCH  68  69
ENDBRANCH  67  68
ENDBRANCH  62  67
ENDBRANCH  60  62
ENDBRANCH  57  58
ENDBRANCH  55  57
ENDBRANCH  52  53
BRANCH  52  72
HETATM   72  C           0       9.888   3.430   9.028  0.00  0.00     0.038 C 
BRANCH  72  73
HETATM   73  C           0       8.618   3.496   8.158  0.00  0.00    -0.020 C 
HETATM   74  C           0       7.576   2.441   8.555  0.00  0.00     0.009 C 
HETATM   75  C           0       8.023   4.911   8.241  0.00  0.00     0.009 C 
ENDBRANCH  72  73
ENDBRANCH  52  72
ENDBRANCH  50  52
ENDBRANCH  41  48
ENDBRANCH   1  41
TORSDOF 28
ENDMDL
MODEL 9
REMARK VINA RESULT:      -3.3      2.095      4.797
REMARK  28 active torsions:
REMARK  status: ('A' for Active; 'I' for Inactive)
REMARK       I    between atoms: C_1  and  N_3 
REMARK    1  A    between atoms: C_1  and  C_41 
REMARK    2  A    between atoms: N_3  and  C_5 
REMARK    3  A    between atoms: C_5  and  C_6 
REMARK    4  A    between atoms: C_5  and  C_18 
REMARK       I    between atoms: C_18  and  N_19 
REMARK    5  A    between atoms: C_20  and  C_25 
REMARK       I    between atoms: C_25  and  N_26 
REMARK    6  A    between atoms: N_26  and  C_29 
REMARK    7  A    between atoms: C_29  and  C_30 
REMARK    8  A    between atoms: C_29  and  C_38 
REMARK       I    between atoms: C_30  and  N_31 
REMARK    9  A    between atoms: N_31  and  C_34 
REMARK   10  A    between atoms: C_34  and  C_35 
REMARK   11  A    between atoms: C_38  and  O_39 
REMARK   12  A    between atoms: C_6  and  C_7 
REMARK   13  A    between atoms: C_7  and  C_8 
REMARK   14  A    between atoms: C_8  and  N_9 
REMARK       I    between atoms: N_9  and  C_10 
REMARK       I    between atoms: C_10  and  N_12 
REMARK   15  A    between atoms: C_41  and  C_42 
REMARK   16  A    between atoms: C_41  and  N_48 
REMARK       I    between atoms: N_48  and  C_50 
REMARK   17  A    between atoms: C_50  and  C_52 
REMARK   18  A    between atoms: C_52  and  N_53 
REMARK   19  A    between atoms: C_52  and  C_72 
REMARK       I    between atoms: N_53  and  C_55 
REMARK   20  A    between atoms: C_55  and  C_57 
REMARK   21  A    between atoms: C_57  and  N_58 
REMARK       I    between atoms: N_58  and  C_60 
REMARK   22  A    between atoms: C_60  and  C_62 
REMARK   23  A    between atoms: C_62  and  N_63 
REMARK   24  A    between atoms: C_62  and  C_67 
REMARK   25  A    between atoms: C_67  and  C_68 
REMARK   26  A    between atoms: C_68  and  C_69 
REMARK   27  A    between atoms: C_72  and  C_73 
REMARK   28  A    between atoms: C_42  and  C_43 
REMARK       I    between atoms: C_43  and  N_44 
ROOT
HETATM    1  C           0      -1.930 -22.931   5.651  0.00  0.00     0.241 C 
HETATM    2  O           0      -2.735 -23.823   5.944  0.00  0.00    -0.271 OA
HETATM    3  N           0      -2.083 -21.660   6.092  0.00  0.00    -0.346 N 
HETATM    4  H           0      -1.422 -20.950   5.801  0.00  0.00     0.163 HD
ENDROOT
BRANCH   3   5
HETATM    5  C           0      -3.105 -21.344   7.088  0.00  0.00     0.176 C 
BRANCH   5   6
HETATM    6  C           0      -2.555 -20.427   8.193  0.00  0.00     0.036 C 
BRANCH   6   7
HETATM    7  C           0      -1.607 -19.373   7.611  0.00  0.00     0.023 C 
BRANCH   7   8
HETATM    8  C           0      -0.459 -18.981   8.541  0.00  0.00     0.138 C 
BRANCH   8   9
HETATM    9  N           0       0.790 -19.311   7.858  0.00  0.00    -0.227 N 
HETATM   10  C           0       1.996 -18.816   8.120  0.00  0.00     0.665 C 
HETATM   11  N           0       2.183 -17.870   9.051  0.00  0.00    -0.235 N 
HETATM   12  N           0       3.037 -19.307   7.422  0.00  0.00    -0.235 N 
HETATM   13  H           0       3.115 -17.609   9.338  0.00  0.00     0.174 HD
HETATM   14  H           0       1.420 -17.557   9.629  0.00  0.00     0.174 HD
HETATM   15  H           0       3.914 -18.811   7.402  0.00  0.00     0.174 HD
HETATM   16  H           0       2.797 -19.925   6.643  0.00  0.00     0.174 HD
HETATM   17  H           0       0.774 -19.979   7.069  0.00  0.00     0.177 HD
ENDBRANCH   8   9
ENDBRANCH   7   8
ENDBRANCH   6   7
ENDBRANCH   5   6
BRANCH   5  18
HETATM   18  C           0      -4.457 -20.861   6.519  0.00  0.00     0.243 C 
HETATM   19  N           0      -5.616 -21.478   6.876  0.00  0.00    -0.337 N 
HETATM   20  C           0      -6.901 -20.922   6.418  0.00  0.00     0.179 C 
HETATM   21  C           0      -5.785 -22.885   7.301  0.00  0.00     0.127 C 
HETATM   22  C           0      -7.856 -22.145   6.334  0.00  0.00     0.037 C 
HETATM   23  C           0      -6.924 -23.365   6.395  0.00  0.00     0.022 C 
HETATM   24  O           0      -4.442 -19.864   5.792  0.00  0.00    -0.271 OA
BRANCH  20  25
HETATM   25  C           0      -7.498 -19.835   7.328  0.00  0.00     0.241 C 
HETATM   26  N           0      -7.200 -18.540   7.049  0.00  0.00    -0.344 N 
HETATM   27  H           0      -6.608 -18.318   6.253  0.00  0.00     0.163 HD
HETATM   28  O           0      -8.206 -20.177   8.278  0.00  0.00    -0.271 OA
BRANCH  26  29
HETATM   29  C           0      -7.561 -17.457   7.953  0.00  0.00     0.200 C 
BRANCH  29  30
HETATM   30  C           0      -8.090 -16.173   7.285  0.00  0.00     0.242 C 
HETATM   31  N           0      -8.806 -16.299   6.159  0.00  0.00    -0.354 N 
HETATM   32  H           0      -9.055 -17.201   5.760  0.00  0.00     0.162 HD
HETATM   33  O           0      -7.830 -15.079   7.809  0.00  0.00    -0.271 OA
BRANCH  31  34
HETATM   34  C           0      -9.402 -15.176   5.459  0.00  0.00     0.203 C 
BRANCH  34  35
HETATM   35  C           0      -9.813 -15.592   4.018  0.00  0.00     0.307 C 
HETATM   36  O           0     -10.613 -14.821   3.422  0.00  0.00    -0.186 OA
HETATM   37  O           0      -9.297 -16.658   3.603  0.00  0.00    -0.186 OA
ENDBRANCH  34  35
ENDBRANCH  31  34
ENDBRANCH  29  30
BRANCH  29  38
HETATM   38  C           0      -6.385 -17.100   8.887  0.00  0.00     0.199 C 
BRANCH  38  39
HETATM   39  O           0      -5.236 -16.668   8.182  0.00  0.00    -0.398 OA
HETATM   40  H           0      -5.320 -15.725   7.962  0.00  0.00     0.209 HD
ENDBRANCH  38  39
ENDBRANCH  29  38
ENDBRANCH  26  29
ENDBRANCH  20  25
ENDBRANCH   5  18
ENDBRANCH   3   5
BRANCH   1  41
HETATM   41  C           0      -0.676 -23.233   4.804  0.00  0.00     0.185 C 
BRANCH  41  42
HETATM   42  C           0      -0.959 -24.233   3.667  0.00  0.00     0.137 C 
BRANCH  42  43
HETATM   43  C           0      -0.657 -25.693   4.005  0.00  0.00     0.217 C 
HETATM   44  N           0      -1.691 -26.353   4.571  0.00  0.00    -0.370 N 
HETATM   45  H           0      -1.513 -27.288   4.909  0.00  0.00     0.159 HD
HETATM   46  H           0      -2.576 -25.893   4.816  0.00  0.00     0.159 HD
HETATM   47  O           0       0.453 -26.193   3.806  0.00  0.00    -0.274 OA
ENDBRANCH  42  43
ENDBRANCH  41  42
BRANCH  41  48
HETATM   48  N           0       0.410 -23.784   5.605  0.00  0.00    -0.346 N 
HETATM   49  H           0       0.475 -24.790   5.696  0.00  0.00     0.163 HD
HETATM   50  C           0       1.277 -23.030   6.311  0.00  0.00     0.241 C 
HETATM   51  O           0       1.216 -21.796   6.364  0.00  0.00    -0.271 OA
BRANCH  50  52
HETATM   52  C           0       2.400 -23.782   7.050  0.00  0.00     0.177 C 
BRANCH  52  53
HETATM   53  N           0       2.813 -24.994   6.349  0.00  0.00    -0.346 N 
HETATM   54  H           0       3.288 -24.905   5.459  0.00  0.00     0.163 HD
HETATM   55  C           0       2.692 -26.226   6.910  0.00  0.00     0.236 C 
HETATM   56  O           0       2.234 -26.408   8.035  0.00  0.00    -0.272 OA
BRANCH  55  57
HETATM   57  C           0       3.189 -27.413   6.073  0.00  0.00     0.225 C 
BRANCH  57  58
HETATM   58  N           0       4.294 -27.092   5.172  0.00  0.00    -0.351 N 
HETATM   59  H           0       4.118 -26.405   4.453  0.00  0.00     0.163 HD
HETATM   60  C           0       5.550 -27.478   5.496  0.00  0.00     0.248 C 
HETATM   61  O           0       5.775 -28.176   6.491  0.00  0.00    -0.271 OA
BRANCH  60  62
HETATM   62  C           0       6.739 -27.084   4.611  0.00  0.00     0.275 C 
BRANCH  62  63
HETATM   63  N           0       6.461 -25.864   3.749  0.00  0.00    -0.066 N 
HETATM   64  H           0       5.767 -25.236   4.168  0.00  0.00     0.275 HD
HETATM   65  H           0       7.297 -25.314   3.530  0.00  0.00     0.275 HD
HETATM   66  H           0       6.076 -26.165   2.847  0.00  0.00     0.275 HD
ENDBRANCH  62  63
BRANCH  62  67
HETATM   67  C           0       8.061 -26.870   5.366  0.00  0.00     0.053 C 
BRANCH  67  68
HETATM   68  C           0       8.242 -25.459   5.938  0.00  0.00     0.115 C 
BRANCH  68  69
HETATM   69  C           0       7.859 -25.254   7.417  0.00  0.00     0.172 C 
HETATM   70  O           0       8.713 -25.509   8.307  0.00  0.00    -0.648 OA
HETATM   71  O           0       6.670 -24.852   7.633  0.00  0.00    -0.648 OA
ENDBRANCH  68  69
ENDBRANCH  67  68
ENDBRANCH  62  67
ENDBRANCH  60  62
ENDBRANCH  57  58
ENDBRANCH  55  57
ENDBRANCH  52  53
BRANCH  52  72
HETATM   72  C           0       3.638 -22.883   7.276  0.00  0.00     0.038 C 
BRANCH  72  73
HETATM   73  C           0       3.974 -22.511   8.732  0.00  0.00    -0.020 C 
HETATM   74  C           0       3.944 -23.725   9.672  0.00  0.00     0.009 C 
HETATM   75  C           0       5.347 -21.821   8.772  0.00  0.00     0.009 C 
ENDBRANCH  72  73
ENDBRANCH  52  72
ENDBRANCH  50  52
ENDBRANCH  41  48
ENDBRANCH   1  41
TORSDOF 28
ENDMDL
