MODEL 1
REMARK VINA RESULT:      -5.5      0.000      0.000
REMARK WARNING: 32 MAX_TORS EXCEEDED!!!
REMARK  42 active torsions:
REMARK  status: ('A' for Active; 'I' for Inactive)
REMARK    1  A    between atoms: CA_2  and  CB_3 
REMARK    2  A    between atoms: CA_2  and  C_11 
REMARK    3  A    between atoms: CB_3  and  CG_4 
REMARK       I    between atoms: C_11  and  N_13 
REMARK    4  A    between atoms: N_13  and  CA_14 
REMARK    5  A    between atoms: CA_14  and  CB_15 
REMARK    6  A    between atoms: CA_14  and  C_19 
REMARK    7  A    between atoms: CB_15  and  CG_16 
REMARK       I    between atoms: C_19  and  N_21 
REMARK    8  A    between atoms: CA_22  and  C_26 
REMARK       I    between atoms: C_26  and  N_28 
REMARK    9  A    between atoms: N_28  and  CA_29 
REMARK   10  A    between atoms: CA_29  and  C_35 
REMARK   11  A    between atoms: CA_29  and  CB_30 
REMARK   12  A    between atoms: CB_30  and  CG_31 
REMARK   13  A    between atoms: CG_31  and  CD_32 
REMARK       I    between atoms: C_35  and  N_37 
REMARK   14  A    between atoms: N_37  and  CA_38 
REMARK   15  A    between atoms: CA_38  and  CB_39 
REMARK   16  A    between atoms: CA_38  and  C_47 
REMARK   17  A    between atoms: CB_39  and  CG_40 
REMARK       I    between atoms: C_47  and  N_49 
REMARK   18  A    between atoms: N_49  and  CA_50 
REMARK   19  A    between atoms: CA_50  and  CB_51 
REMARK   20  A    between atoms: CA_50  and  C_58 
REMARK   21  A    between atoms: CB_51  and  CG_52 
REMARK   22  A    between atoms: CG_52  and  CD_53 
REMARK   23  A    between atoms: CD_53  and  NE_54 
REMARK       I    between atoms: C_58  and  N_60 
REMARK   24  A    between atoms: N_60  and  CA_61 
REMARK   25  A    between atoms: CA_61  and  C_66 
REMARK   26  A    between atoms: CA_61  and  CB_62 
REMARK   27  A    between atoms: CB_62  and  CG_63 
REMARK       I    between atoms: C_66  and  N_68 
REMARK   28  A    between atoms: N_68  and  CA_69 
REMARK   29  A    between atoms: CA_69  and  CB_70 
REMARK   30  A    between atoms: CA_69  and  C_77 
REMARK   31  A    between atoms: CB_70  and  CG_71 
REMARK       I    between atoms: C_77  and  N_79 
REMARK   32  A    between atoms: N_79  and  CA_80 
REMARK   33  A    between atoms: CA_80  and  CB_81 
REMARK   34  A    between atoms: CA_80  and  C_91 
REMARK   35  A    between atoms: CB_81  and  CG_82 
REMARK       I    between atoms: C_91  and  N_93 
REMARK   36  A    between atoms: N_93  and  CA_94 
REMARK   37  A    between atoms: CA_94  and  C_95 
REMARK       I    between atoms: C_95  and  N_97 
REMARK   38  A    between atoms: N_97  and  CA_98 
REMARK   39  A    between atoms: CA_98  and  C_101 
REMARK   40  A    between atoms: CA_98  and  CB_99 
REMARK       I    between atoms: C_101  and  N_103 
REMARK   41  A    between atoms: N_103  and  CA_104 
REMARK   42  A    between atoms: CA_104  and  C_105 
ROOT
ATOM      1  CA  ARG     6      -1.862 -13.299   9.811  1.00  0.00     0.186 C 
ENDROOT
BRANCH   1   2
ATOM      2  N   ARG     6      -1.726 -14.544   9.020  1.00  0.00    -0.229 NA
ATOM      3  C   TYR     5      -1.037 -15.604   9.464  1.00  0.00     0.275 C 
ATOM      4  O   TYR     5      -0.497 -15.623  10.570  1.00  0.00    -0.268 OA
BRANCH   3   5
ATOM      5  CA  TYR     5      -1.037 -16.860   8.578  1.00  0.00     0.191 C 
BRANCH   5   6
ATOM      6  N   TYR     5       0.309 -17.469   8.412  1.00  0.00    -0.228 NA
ATOM      7  C   GLU     4       1.243 -16.969   7.587  1.00  0.00     0.274 C 
ATOM      8  O   GLU     4       1.112 -15.895   7.013  1.00  0.00    -0.268 OA
BRANCH   7   9
ATOM      9  CA  GLU     4       2.629 -17.644   7.646  1.00  0.00     0.187 C 
BRANCH   9  10
ATOM     10  CB  GLU     4       3.552 -17.033   6.579  1.00  0.00     0.045 C 
BRANCH  10  11
ATOM     11  CG  GLU     4       4.981 -16.668   7.040  1.00  0.00     0.100 C 
BRANCH  11  12
ATOM     12  CD  GLU     4       6.075 -17.569   6.469  1.00  0.00     0.185 C 
ATOM     13  OE1 GLU     4       5.757 -18.751   6.177  1.00  0.00    -0.647 OA
ATOM     14  OE2 GLU     4       7.252 -17.273   6.758  1.00  0.00    -0.647 OA
ENDBRANCH  11  12
ENDBRANCH  10  11
ENDBRANCH   9  10
BRANCH   9  15
ATOM     15  N   GLU     4       2.575 -19.104   7.442  1.00  0.00    -0.229 NA
ATOM     16  C   PRO     3       3.100 -20.058   8.201  1.00  0.00     0.272 C 
ATOM     17  O   PRO     3       3.394 -19.894   9.386  1.00  0.00    -0.269 OA
BRANCH  16  18
ATOM     18  CA  PRO     3       2.865 -21.488   7.709  1.00  0.00     0.165 C 
ATOM     19  N   PRO     3       1.514 -21.745   7.168  1.00  0.00    -0.312 N 
ATOM     20  CD  PRO     3       1.614 -22.607   5.963  1.00  0.00     0.105 C 
ATOM     21  C   ASP     2       0.375 -21.376   7.783  1.00  0.00     0.257 C 
ATOM     22  CG  PRO     3       3.088 -23.041   5.929  1.00  0.00     0.027 C 
ATOM     23  CB  PRO     3       3.825 -21.878   6.587  1.00  0.00     0.034 C 
ATOM     24  O   ASP     2       0.398 -20.980   8.958  1.00  0.00    -0.270 OA
BRANCH  21  25
ATOM     25  CA  ASP     2      -0.985 -21.774   7.167  1.00  0.00     0.195 C 
BRANCH  25  26
ATOM     26  CB  ASP     2      -1.521 -20.863   6.033  1.00  0.00     0.132 C 
BRANCH  26  27
ATOM     27  CG  ASP     2      -2.179 -21.710   4.928  1.00  0.00     0.188 C 
ATOM     28  OD2 ASP     2      -1.543 -22.738   4.583  1.00  0.00    -0.647 OA
ATOM     29  OD1 ASP     2      -2.896 -21.097   4.098  1.00  0.00    -0.647 OA
ENDBRANCH  26  27
ENDBRANCH  25  26
BRANCH  25  30
ATOM     30  N   ASP     2      -2.076 -21.726   8.156  1.00  0.00    -0.228 NA
ATOM     31  C   TYR     1      -3.008 -22.631   8.340  1.00  0.00     0.289 C 
ATOM     32  O   TYR     1      -3.089 -23.754   7.832  1.00  0.00    -0.268 OA
BRANCH  31  33
ATOM     33  CA  TYR     1      -4.093 -22.147   9.297  1.00  0.00     0.385 C 
ATOM     34  N   TYR     1      -3.516 -22.110  10.651  1.00  0.00     0.626 N 
BRANCH  33  35
ATOM     35  CB  TYR     1      -4.543 -20.770   8.816  1.00  0.00     0.075 C 
BRANCH  35  36
ATOM     36  CG  TYR     1      -5.451 -20.833   7.578  1.00  0.00    -0.019 A 
ATOM     37  CD2 TYR     1      -6.574 -21.646   7.546  1.00  0.00    -0.002 A 
ATOM     38  CE2 TYR     1      -7.450 -21.583   6.473  1.00  0.00     0.027 A 
ATOM     39  CZ  TYR     1      -7.183 -20.700   5.428  1.00  0.00     0.131 A 
ATOM     40  CE1 TYR     1      -6.040 -19.922   5.447  1.00  0.00     0.027 A 
ATOM     41  OH  TYR     1      -8.107 -20.484   4.470  1.00  0.00    -0.190 OA
ATOM     42  CD1 TYR     1      -5.164 -19.984   6.520  1.00  0.00    -0.002 A 
ENDBRANCH  35  36
ENDBRANCH  33  35
ENDBRANCH  31  33
ENDBRANCH  25  30
ENDBRANCH  21  25
ENDBRANCH  16  18
ENDBRANCH   9  15
ENDBRANCH   7   9
ENDBRANCH   5   6
BRANCH   5  43
ATOM     43  CB  TYR     5      -2.028 -17.909   9.111  1.00  0.00     0.060 C 
BRANCH  43  44
ATOM     44  CG  TYR     5      -3.381 -17.289   9.497  1.00  0.00    -0.020 A 
ATOM     45  CD2 TYR     5      -4.293 -16.916   8.518  1.00  0.00    -0.002 A 
ATOM     46  CE2 TYR     5      -5.518 -16.363   8.878  1.00  0.00     0.027 A 
ATOM     47  CZ  TYR     5      -5.832 -16.183  10.217  1.00  0.00     0.131 A 
ATOM     48  CE1 TYR     5      -4.932 -16.571  11.203  1.00  0.00     0.027 A 
ATOM     49  OH  TYR     5      -6.955 -15.522  10.570  1.00  0.00    -0.190 OA
ATOM     50  CD1 TYR     5      -3.701 -17.117  10.839  1.00  0.00    -0.002 A 
ENDBRANCH  43  44
ENDBRANCH   5  43
ENDBRANCH   3   5
ENDBRANCH   1   2
BRANCH   1  51
ATOM     51  CB  ARG     6      -0.833 -12.239   9.430  1.00  0.00     0.036 C 
BRANCH  51  52
ATOM     52  CG  ARG     6      -0.657 -11.146  10.487  1.00  0.00     0.029 C 
BRANCH  52  53
ATOM     53  CD  ARG     6       0.158 -11.672  11.665  1.00  0.00     0.145 C 
BRANCH  53  54
ATOM     54  NE  ARG     6       1.176 -10.693  12.082  1.00  0.00    -0.083 NA
ATOM     55  CZ  ARG     6       1.071  -9.856  13.132  1.00  0.00     0.782 C 
ATOM     56  NH2 ARG     6       2.019  -8.948  13.373  1.00  0.00     0.063 N 
ATOM     57  NH1 ARG     6      -0.019  -9.867  13.892  1.00  0.00     0.063 N 
ENDBRANCH  53  54
ENDBRANCH  52  53
ENDBRANCH  51  52
ENDBRANCH   1  51
BRANCH   1  58
ATOM     58  C   ARG     6      -3.242 -12.648   9.648  1.00  0.00     0.274 C 
ATOM     59  N   ASN     7      -3.480 -12.088   8.465  1.00  0.00    -0.228 NA
ATOM     60  O   ARG     6      -4.033 -12.673  10.592  1.00  0.00    -0.268 OA
BRANCH  59  61
ATOM     61  CA  ASN     7      -4.783 -11.501   8.089  1.00  0.00     0.196 C 
BRANCH  61  62
ATOM     62  C   ASN     7      -5.637 -12.492   7.275  1.00  0.00     0.275 C 
ATOM     63  N   PHE     8      -6.953 -12.518   7.536  1.00  0.00    -0.228 NA
ATOM     64  O   ASN     7      -5.174 -12.889   6.223  1.00  0.00    -0.268 OA
BRANCH  63  65
ATOM     65  CA  PHE     8      -7.948 -13.337   6.802  1.00  0.00     0.191 C 
BRANCH  65  66
ATOM     66  CB  PHE     8      -8.893 -13.978   7.827  1.00  0.00     0.060 C 
BRANCH  66  67
ATOM     67  CG  PHE     8      -9.047 -15.503   7.684  1.00  0.00    -0.020 A 
ATOM     68  CD1 PHE     8      -9.571 -16.248   8.732  1.00  0.00    -0.004 A 
ATOM     69  CE1 PHE     8      -9.615 -17.639   8.642  1.00  0.00    -0.000 A 
ATOM     70  CZ  PHE     8      -9.149 -18.269   7.499  1.00  0.00    -0.000 A 
ATOM     71  CE2 PHE     8      -8.636 -17.524   6.442  1.00  0.00    -0.000 A 
ATOM     72  CD2 PHE     8      -8.592 -16.133   6.533  1.00  0.00    -0.004 A 
ENDBRANCH  66  67
ENDBRANCH  65  66
BRANCH  65  73
ATOM     73  C   PHE     8      -8.726 -12.584   5.699  1.00  0.00     0.275 C 
ATOM     74  N   TRP     9     -10.032 -12.412   5.907  1.00  0.00    -0.228 NA
ATOM     75  O   PHE     8      -8.223 -12.387   4.590  1.00  0.00    -0.268 OA
BRANCH  74  76
ATOM     76  CA  TRP     9     -10.875 -11.602   4.993  1.00  0.00     0.191 C 
BRANCH  76  77
ATOM     77  CB  TRP     9     -12.062 -12.460   4.523  1.00  0.00     0.062 C 
BRANCH  77  78
ATOM     78  CG  TRP     9     -11.702 -13.932   4.331  1.00  0.00     0.001 A 
ATOM     79  CD1 TRP     9     -11.322 -14.501   3.191  1.00  0.00     0.095 A 
ATOM     80  NE1 TRP     9     -11.375 -15.822   3.310  1.00  0.00    -0.244 NA
ATOM     81  CE2 TRP     9     -11.771 -16.141   4.533  1.00  0.00     0.081 A 
ATOM     82  CD2 TRP     9     -12.004 -14.960   5.219  1.00  0.00     0.015 A 
ATOM     83  CZ2 TRP     9     -12.072 -17.359   5.143  1.00  0.00     0.019 A 
ATOM     84  CE3 TRP     9     -12.547 -14.975   6.495  1.00  0.00     0.001 A 
ATOM     85  CZ3 TRP     9     -12.861 -16.188   7.100  1.00  0.00     0.000 A 
ATOM     86  CH2 TRP     9     -12.602 -17.379   6.424  1.00  0.00     0.002 A 
ENDBRANCH  77  78
ENDBRANCH  76  77
BRANCH  76  87
ATOM     87  C   TRP     9     -11.345 -10.252   5.581  1.00  0.00     0.275 C 
ATOM     88  O   TRP     9     -10.944  -9.189   5.117  1.00  0.00    -0.268 OA
ATOM     89  N   GLY    10     -12.273 -10.317   6.535  1.00  0.00    -0.226 NA
BRANCH  89  90
ATOM     90  CA  GLY    10     -12.883  -9.129   7.193  1.00  0.00     0.218 C 
BRANCH  90  91
ATOM     91  C   GLY    10     -13.082  -9.220   8.715  1.00  0.00     0.277 C 
ATOM     92  N   CYS    11     -13.620 -10.360   9.146  1.00  0.00    -0.228 NA
ATOM     93  O   GLY    10     -12.911  -8.236   9.426  1.00  0.00    -0.268 OA
BRANCH  92  94
ATOM     94  CA  CYS    11     -13.902 -10.726  10.552  1.00  0.00     0.198 C 
BRANCH  94  95
ATOM     95  C   CYS    11     -13.490 -12.198  10.754  1.00  0.00     0.275 C 
ATOM     96  O   CYS    11     -14.220 -12.937  11.405  1.00  0.00    -0.268 OA
ATOM     97  N   GLY    12     -12.262 -12.516  10.371  1.00  0.00    -0.225 NA
BRANCH  97  98
ATOM     98  CA  GLY    12     -11.706 -13.872  10.508  1.00  0.00     0.226 C 
BRANCH  98  99
ATOM     99  C   GLY    12     -10.854 -13.910  11.798  1.00  0.00     0.211 C 
ATOM    100  O1  GLY    12     -10.894 -14.973  12.469  1.00  0.00    -0.646 OA
ATOM    101  O2  GLY    12     -10.163 -12.910  12.067  1.00  0.00    -0.646 OA
ENDBRANCH  98  99
ENDBRANCH  97  98
ENDBRANCH  94  95
BRANCH  94 102
ATOM    102  CB  CYS    11     -15.405 -10.679  10.817  1.00  0.00     0.103 C 
ATOM    103  SG  CYS    11     -15.957  -9.526  12.132  1.00  0.00    -0.080 SA
ENDBRANCH  94 102
ENDBRANCH  92  94
ENDBRANCH  90  91
ENDBRANCH  89  90
ENDBRANCH  76  87
ENDBRANCH  74  76
ENDBRANCH  65  73
ENDBRANCH  63  65
ENDBRANCH  61  62
BRANCH  61 104
ATOM    104  CB  ASN     7      -4.600 -10.183   7.326  1.00  0.00     0.126 C 
BRANCH 104 105
ATOM    105  CG  ASN     7      -4.703  -8.914   8.193  1.00  0.00     0.276 C 
ATOM    106  ND2 ASN     7      -5.461  -7.952   7.719  1.00  0.00    -0.107 N 
ATOM    107  OD1 ASN     7      -4.024  -8.684   9.185  1.00  0.00    -0.269 OA
ENDBRANCH 104 105
ENDBRANCH  61 104
ENDBRANCH  59  61
ENDBRANCH   1  58
TORSDOF 42
ENDMDL
MODEL 2
REMARK VINA RESULT:      -5.3     15.898     24.639
REMARK WARNING: 32 MAX_TORS EXCEEDED!!!
REMARK  42 active torsions:
REMARK  status: ('A' for Active; 'I' for Inactive)
REMARK    1  A    between atoms: CA_2  and  CB_3 
REMARK    2  A    between atoms: CA_2  and  C_11 
REMARK    3  A    between atoms: CB_3  and  CG_4 
REMARK       I    between atoms: C_11  and  N_13 
REMARK    4  A    between atoms: N_13  and  CA_14 
REMARK    5  A    between atoms: CA_14  and  CB_15 
REMARK    6  A    between atoms: CA_14  and  C_19 
REMARK    7  A    between atoms: CB_15  and  CG_16 
REMARK       I    between atoms: C_19  and  N_21 
REMARK    8  A    between atoms: CA_22  and  C_26 
REMARK       I    between atoms: C_26  and  N_28 
REMARK    9  A    between atoms: N_28  and  CA_29 
REMARK   10  A    between atoms: CA_29  and  C_35 
REMARK   11  A    between atoms: CA_29  and  CB_30 
REMARK   12  A    between atoms: CB_30  and  CG_31 
REMARK   13  A    between atoms: CG_31  and  CD_32 
REMARK       I    between atoms: C_35  and  N_37 
REMARK   14  A    between atoms: N_37  and  CA_38 
REMARK   15  A    between atoms: CA_38  and  CB_39 
REMARK   16  A    between atoms: CA_38  and  C_47 
REMARK   17  A    between atoms: CB_39  and  CG_40 
REMARK       I    between atoms: C_47  and  N_49 
REMARK   18  A    between atoms: N_49  and  CA_50 
REMARK   19  A    between atoms: CA_50  and  CB_51 
REMARK   20  A    between atoms: CA_50  and  C_58 
REMARK   21  A    between atoms: CB_51  and  CG_52 
REMARK   22  A    between atoms: CG_52  and  CD_53 
REMARK   23  A    between atoms: CD_53  and  NE_54 
REMARK       I    between atoms: C_58  and  N_60 
REMARK   24  A    between atoms: N_60  and  CA_61 
REMARK   25  A    between atoms: CA_61  and  C_66 
REMARK   26  A    between atoms: CA_61  and  CB_62 
REMARK   27  A    between atoms: CB_62  and  CG_63 
REMARK       I    between atoms: C_66  and  N_68 
REMARK   28  A    between atoms: N_68  and  CA_69 
REMARK   29  A    between atoms: CA_69  and  CB_70 
REMARK   30  A    between atoms: CA_69  and  C_77 
REMARK   31  A    between atoms: CB_70  and  CG_71 
REMARK       I    between atoms: C_77  and  N_79 
REMARK   32  A    between atoms: N_79  and  CA_80 
REMARK   33  A    between atoms: CA_80  and  CB_81 
REMARK   34  A    between atoms: CA_80  and  C_91 
REMARK   35  A    between atoms: CB_81  and  CG_82 
REMARK       I    between atoms: C_91  and  N_93 
REMARK   36  A    between atoms: N_93  and  CA_94 
REMARK   37  A    between atoms: CA_94  and  C_95 
REMARK       I    between atoms: C_95  and  N_97 
REMARK   38  A    between atoms: N_97  and  CA_98 
REMARK   39  A    between atoms: CA_98  and  C_101 
REMARK   40  A    between atoms: CA_98  and  CB_99 
REMARK       I    between atoms: C_101  and  N_103 
REMARK   41  A    between atoms: N_103  and  CA_104 
REMARK   42  A    between atoms: CA_104  and  C_105 
ROOT
ATOM      1  CA  ARG     6       0.347   4.690   9.966  1.00  0.00     0.186 C 
ENDROOT
BRANCH   1   2
ATOM      2  N   ARG     6      -1.027   4.465   9.458  1.00  0.00    -0.229 NA
ATOM      3  C   TYR     5      -1.473   5.019   8.323  1.00  0.00     0.275 C 
ATOM      4  O   TYR     5      -0.760   5.729   7.613  1.00  0.00    -0.268 OA
BRANCH   3   5
ATOM      5  CA  TYR     5      -2.894   4.645   7.872  1.00  0.00     0.191 C 
BRANCH   5   6
ATOM      6  N   TYR     5      -3.591   3.727   8.809  1.00  0.00    -0.228 NA
ATOM      7  C   GLU     4      -3.818   2.432   8.536  1.00  0.00     0.274 C 
ATOM      8  O   GLU     4      -3.345   1.871   7.556  1.00  0.00    -0.268 OA
BRANCH   7   9
ATOM      9  CA  GLU     4      -4.428   1.596   9.680  1.00  0.00     0.187 C 
BRANCH   9  10
ATOM     10  CB  GLU     4      -3.552   0.361   9.948  1.00  0.00     0.045 C 
BRANCH  10  11
ATOM     11  CG  GLU     4      -3.362  -0.033  11.430  1.00  0.00     0.100 C 
BRANCH  11  12
ATOM     12  CD  GLU     4      -2.009  -0.670  11.742  1.00  0.00     0.185 C 
ATOM     13  OE1 GLU     4      -1.836  -1.865  11.384  1.00  0.00    -0.647 OA
ATOM     14  OE2 GLU     4      -1.368  -0.186  12.697  1.00  0.00    -0.647 OA
ENDBRANCH  11  12
ENDBRANCH  10  11
ENDBRANCH   9  10
BRANCH   9  15
ATOM     15  N   GLU     4      -5.805   1.145   9.401  1.00  0.00    -0.229 NA
ATOM     16  C   PRO     3      -6.208   0.237   8.519  1.00  0.00     0.272 C 
ATOM     17  O   PRO     3      -5.468  -0.634   8.059  1.00  0.00    -0.269 OA
BRANCH  16  18
ATOM     18  CA  PRO     3      -7.718  -0.003   8.473  1.00  0.00     0.165 C 
ATOM     19  N   PRO     3      -8.400   0.555   7.285  1.00  0.00    -0.312 N 
ATOM     20  CD  PRO     3      -9.426  -0.405   6.802  1.00  0.00     0.105 C 
ATOM     21  C   ASP     2      -8.212   1.807   6.830  1.00  0.00     0.257 C 
ATOM     22  CG  PRO     3      -9.481  -1.484   7.895  1.00  0.00     0.027 C 
ATOM     23  CB  PRO     3      -8.068  -1.490   8.471  1.00  0.00     0.034 C 
ATOM     24  O   ASP     2      -7.605   2.640   7.520  1.00  0.00    -0.270 OA
BRANCH  21  25
ATOM     25  CA  ASP     2      -9.044   2.313   5.630  1.00  0.00     0.195 C 
BRANCH  25  26
ATOM     26  CB  ASP     2      -8.556   1.882   4.223  1.00  0.00     0.132 C 
BRANCH  26  27
ATOM     27  CG  ASP     2      -9.746   1.771   3.251  1.00  0.00     0.188 C 
ATOM     28  OD2 ASP     2      -9.811   2.665   2.370  1.00  0.00    -0.647 OA
ATOM     29  OD1 ASP     2     -10.793   1.243   3.701  1.00  0.00    -0.647 OA
ENDBRANCH  26  27
ENDBRANCH  25  26
BRANCH  25  30
ATOM     30  N   ASP     2      -9.039   3.782   5.533  1.00  0.00    -0.228 NA
ATOM     31  C   TYR     1     -10.060   4.585   5.721  1.00  0.00     0.289 C 
ATOM     32  O   TYR     1     -11.184   4.298   6.145  1.00  0.00    -0.268 OA
BRANCH  31  33
ATOM     33  CA  TYR     1      -9.738   6.022   5.324  1.00  0.00     0.385 C 
ATOM     34  N   TYR     1     -10.381   6.915   6.303  1.00  0.00     0.626 N 
BRANCH  33  35
ATOM     35  CB  TYR     1      -8.218   6.162   5.314  1.00  0.00     0.075 C 
BRANCH  35  36
ATOM     36  CG  TYR     1      -7.716   7.319   6.192  1.00  0.00    -0.019 A 
ATOM     37  CD2 TYR     1      -7.287   7.106   7.493  1.00  0.00    -0.002 A 
ATOM     38  CE2 TYR     1      -6.712   8.140   8.216  1.00  0.00     0.027 A 
ATOM     39  CZ  TYR     1      -6.580   9.394   7.621  1.00  0.00     0.131 A 
ATOM     40  CE1 TYR     1      -7.047   9.610   6.338  1.00  0.00     0.027 A 
ATOM     41  OH  TYR     1      -5.861  10.360   8.228  1.00  0.00    -0.190 OA
ATOM     42  CD1 TYR     1      -7.622   8.576   5.614  1.00  0.00    -0.002 A 
ENDBRANCH  35  36
ENDBRANCH  33  35
ENDBRANCH  31  33
ENDBRANCH  25  30
ENDBRANCH  21  25
ENDBRANCH  16  18
ENDBRANCH   9  15
ENDBRANCH   7   9
ENDBRANCH   5   6
BRANCH   5  43
ATOM     43  CB  TYR     5      -3.744   5.904   7.634  1.00  0.00     0.060 C 
BRANCH  43  44
ATOM     44  CG  TYR     5      -4.035   6.139   6.142  1.00  0.00    -0.020 A 
ATOM     45  CD2 TYR     5      -4.310   5.071   5.298  1.00  0.00    -0.002 A 
ATOM     46  CE2 TYR     5      -4.579   5.294   3.951  1.00  0.00     0.027 A 
ATOM     47  CZ  TYR     5      -4.572   6.586   3.448  1.00  0.00     0.131 A 
ATOM     48  CE1 TYR     5      -4.315   7.662   4.290  1.00  0.00     0.027 A 
ATOM     49  OH  TYR     5      -4.694   6.799   2.120  1.00  0.00    -0.190 OA
ATOM     50  CD1 TYR     5      -4.037   7.435   5.638  1.00  0.00    -0.002 A 
ENDBRANCH  43  44
ENDBRANCH   5  43
ENDBRANCH   3   5
ENDBRANCH   1   2
BRANCH   1  51
ATOM     51  CB  ARG     6       0.388   5.622  11.173  1.00  0.00     0.036 C 
BRANCH  51  52
ATOM     52  CG  ARG     6       0.583   7.095  10.805  1.00  0.00     0.029 C 
BRANCH  52  53
ATOM     53  CD  ARG     6      -0.749   7.837  10.861  1.00  0.00     0.145 C 
BRANCH  53  54
ATOM     54  NE  ARG     6      -1.034   8.507   9.581  1.00  0.00    -0.083 NA
ATOM     55  CZ  ARG     6      -2.230   9.000   9.206  1.00  0.00     0.782 C 
ATOM     56  NH2 ARG     6      -2.399   9.514   7.986  1.00  0.00     0.063 N 
ATOM     57  NH1 ARG     6      -3.279   8.902  10.015  1.00  0.00     0.063 N 
ENDBRANCH  53  54
ENDBRANCH  52  53
ENDBRANCH  51  52
ENDBRANCH   1  51
BRANCH   1  58
ATOM     58  C   ARG     6       1.035   3.388  10.394  1.00  0.00     0.274 C 
ATOM     59  N   ASN     7       1.688   2.738   9.434  1.00  0.00    -0.228 NA
ATOM     60  O   ARG     6       0.947   3.018  11.565  1.00  0.00    -0.268 OA
BRANCH  59  61
ATOM     61  CA  ASN     7       2.491   1.521   9.675  1.00  0.00     0.196 C 
BRANCH  61  62
ATOM     62  C   ASN     7       3.950   1.705   9.214  1.00  0.00     0.275 C 
ATOM     63  N   PHE     8       4.184   2.663   8.305  1.00  0.00    -0.228 NA
ATOM     64  O   ASN     7       4.820   1.273   9.946  1.00  0.00    -0.268 OA
BRANCH  63  65
ATOM     65  CA  PHE     8       5.527   3.047   7.804  1.00  0.00     0.191 C 
BRANCH  65  66
ATOM     66  CB  PHE     8       5.718   2.423   6.415  1.00  0.00     0.060 C 
BRANCH  66  67
ATOM     67  CG  PHE     8       6.942   1.495   6.298  1.00  0.00    -0.020 A 
ATOM     68  CD1 PHE     8       7.481   1.214   5.050  1.00  0.00    -0.004 A 
ATOM     69  CE1 PHE     8       8.524   0.295   4.935  1.00  0.00    -0.000 A 
ATOM     70  CZ  PHE     8       9.025  -0.322   6.070  1.00  0.00    -0.000 A 
ATOM     71  CE2 PHE     8       8.496  -0.032   7.323  1.00  0.00    -0.000 A 
ATOM     72  CD2 PHE     8       7.453   0.887   7.438  1.00  0.00    -0.004 A 
ENDBRANCH  66  67
ENDBRANCH  65  66
BRANCH  65  73
ATOM     73  C   PHE     8       5.808   4.567   7.791  1.00  0.00     0.275 C 
ATOM     74  N   TRP     9       5.421   5.251   8.868  1.00  0.00    -0.228 NA
ATOM     75  O   PHE     8       6.134   5.141   6.750  1.00  0.00    -0.268 OA
BRANCH  74  76
ATOM     76  CA  TRP     9       5.737   6.690   9.043  1.00  0.00     0.191 C 
BRANCH  76  77
ATOM     77  CB  TRP     9       4.631   7.343   9.889  1.00  0.00     0.062 C 
BRANCH  77  78
ATOM     78  CG  TRP     9       4.156   8.682   9.328  1.00  0.00     0.001 A 
ATOM     79  CD1 TRP     9       4.427   9.882   9.835  1.00  0.00     0.095 A 
ATOM     80  NE1 TRP     9       3.628  10.790   9.288  1.00  0.00    -0.244 NA
ATOM     81  CE2 TRP     9       2.836  10.207   8.401  1.00  0.00     0.081 A 
ATOM     82  CD2 TRP     9       3.130   8.852   8.403  1.00  0.00     0.015 A 
ATOM     83  CZ2 TRP     9       1.775  10.676   7.627  1.00  0.00     0.019 A 
ATOM     84  CE3 TRP     9       2.374   7.960   7.658  1.00  0.00     0.001 A 
ATOM     85  CZ3 TRP     9       1.307   8.424   6.896  1.00  0.00     0.000 A 
ATOM     86  CH2 TRP     9       1.025   9.789   6.870  1.00  0.00     0.002 A 
ENDBRANCH  77  78
ENDBRANCH  76  77
BRANCH  76  87
ATOM     87  C   TRP     9       7.141   6.972   9.625  1.00  0.00     0.275 C 
ATOM     88  O   TRP     9       7.300   7.145  10.830  1.00  0.00    -0.268 OA
ATOM     89  N   GLY    10       8.157   6.914   8.766  1.00  0.00    -0.226 NA
BRANCH  89  90
ATOM     90  CA  GLY    10       9.584   7.113   9.140  1.00  0.00     0.218 C 
BRANCH  90  91
ATOM     91  C   GLY    10      10.532   7.548   8.010  1.00  0.00     0.277 C 
ATOM     92  N   CYS    11      11.172   6.553   7.397  1.00  0.00    -0.228 NA
ATOM     93  O   GLY    10      10.787   8.733   7.832  1.00  0.00    -0.268 OA
BRANCH  92  94
ATOM     94  CA  CYS    11      12.120   6.678   6.268  1.00  0.00     0.198 C 
BRANCH  94  95
ATOM     95  C   CYS    11      11.846   5.524   5.283  1.00  0.00     0.275 C 
ATOM     96  O   CYS    11      12.309   5.586   4.150  1.00  0.00    -0.268 OA
ATOM     97  N   GLY    12      10.954   4.626   5.673  1.00  0.00    -0.225 NA
BRANCH  97  98
ATOM     98  CA  GLY    12      10.565   3.472   4.848  1.00  0.00     0.226 C 
BRANCH  98  99
ATOM     99  C   GLY    12      11.534   2.309   5.166  1.00  0.00     0.211 C 
ATOM    100  O1  GLY    12      12.084   1.750   4.184  1.00  0.00    -0.646 OA
ATOM    101  O2  GLY    12      11.731   2.029   6.362  1.00  0.00    -0.646 OA
ENDBRANCH  98  99
ENDBRANCH  97  98
ENDBRANCH  94  95
BRANCH  94 102
ATOM    102  CB  CYS    11      13.551   6.470   6.758  1.00  0.00     0.103 C 
ATOM    103  SG  CYS    11      14.072   4.731   7.020  1.00  0.00    -0.080 SA
ENDBRANCH  94 102
ENDBRANCH  92  94
ENDBRANCH  90  91
ENDBRANCH  89  90
ENDBRANCH  76  87
ENDBRANCH  74  76
ENDBRANCH  65  73
ENDBRANCH  63  65
ENDBRANCH  61  62
BRANCH  61 104
ATOM    104  CB  ASN     7       1.858   0.295   9.006  1.00  0.00     0.126 C 
BRANCH 104 105
ATOM    105  CG  ASN     7       2.224  -1.055   9.650  1.00  0.00     0.276 C 
ATOM    106  ND2 ASN     7       1.499  -1.417  10.683  1.00  0.00    -0.107 N 
ATOM    107  OD1 ASN     7       3.215  -1.719   9.373  1.00  0.00    -0.269 OA
ENDBRANCH 104 105
ENDBRANCH  61 104
ENDBRANCH  59  61
ENDBRANCH   1  58
TORSDOF 42
ENDMDL
MODEL 3
REMARK VINA RESULT:      -5.1      2.978      6.518
REMARK WARNING: 32 MAX_TORS EXCEEDED!!!
REMARK  42 active torsions:
REMARK  status: ('A' for Active; 'I' for Inactive)
REMARK    1  A    between atoms: CA_2  and  CB_3 
REMARK    2  A    between atoms: CA_2  and  C_11 
REMARK    3  A    between atoms: CB_3  and  CG_4 
REMARK       I    between atoms: C_11  and  N_13 
REMARK    4  A    between atoms: N_13  and  CA_14 
REMARK    5  A    between atoms: CA_14  and  CB_15 
REMARK    6  A    between atoms: CA_14  and  C_19 
REMARK    7  A    between atoms: CB_15  and  CG_16 
REMARK       I    between atoms: C_19  and  N_21 
REMARK    8  A    between atoms: CA_22  and  C_26 
REMARK       I    between atoms: C_26  and  N_28 
REMARK    9  A    between atoms: N_28  and  CA_29 
REMARK   10  A    between atoms: CA_29  and  C_35 
REMARK   11  A    between atoms: CA_29  and  CB_30 
REMARK   12  A    between atoms: CB_30  and  CG_31 
REMARK   13  A    between atoms: CG_31  and  CD_32 
REMARK       I    between atoms: C_35  and  N_37 
REMARK   14  A    between atoms: N_37  and  CA_38 
REMARK   15  A    between atoms: CA_38  and  CB_39 
REMARK   16  A    between atoms: CA_38  and  C_47 
REMARK   17  A    between atoms: CB_39  and  CG_40 
REMARK       I    between atoms: C_47  and  N_49 
REMARK   18  A    between atoms: N_49  and  CA_50 
REMARK   19  A    between atoms: CA_50  and  CB_51 
REMARK   20  A    between atoms: CA_50  and  C_58 
REMARK   21  A    between atoms: CB_51  and  CG_52 
REMARK   22  A    between atoms: CG_52  and  CD_53 
REMARK   23  A    between atoms: CD_53  and  NE_54 
REMARK       I    between atoms: C_58  and  N_60 
REMARK   24  A    between atoms: N_60  and  CA_61 
REMARK   25  A    between atoms: CA_61  and  C_66 
REMARK   26  A    between atoms: CA_61  and  CB_62 
REMARK   27  A    between atoms: CB_62  and  CG_63 
REMARK       I    between atoms: C_66  and  N_68 
REMARK   28  A    between atoms: N_68  and  CA_69 
REMARK   29  A    between atoms: CA_69  and  CB_70 
REMARK   30  A    between atoms: CA_69  and  C_77 
REMARK   31  A    between atoms: CB_70  and  CG_71 
REMARK       I    between atoms: C_77  and  N_79 
REMARK   32  A    between atoms: N_79  and  CA_80 
REMARK   33  A    between atoms: CA_80  and  CB_81 
REMARK   34  A    between atoms: CA_80  and  C_91 
REMARK   35  A    between atoms: CB_81  and  CG_82 
REMARK       I    between atoms: C_91  and  N_93 
REMARK   36  A    between atoms: N_93  and  CA_94 
REMARK   37  A    between atoms: CA_94  and  C_95 
REMARK       I    between atoms: C_95  and  N_97 
REMARK   38  A    between atoms: N_97  and  CA_98 
REMARK   39  A    between atoms: CA_98  and  C_101 
REMARK   40  A    between atoms: CA_98  and  CB_99 
REMARK       I    between atoms: C_101  and  N_103 
REMARK   41  A    between atoms: N_103  and  CA_104 
REMARK   42  A    between atoms: CA_104  and  C_105 
ROOT
ATOM      1  CA  ARG     6       0.047 -15.654   7.683  1.00  0.00     0.186 C 
ENDROOT
BRANCH   1   2
ATOM      2  N   ARG     6       0.837 -16.907   7.706  1.00  0.00    -0.229 NA
ATOM      3  C   TYR     5       2.026 -17.017   7.100  1.00  0.00     0.275 C 
ATOM      4  O   TYR     5       2.553 -16.075   6.507  1.00  0.00    -0.268 OA
BRANCH   3   5
ATOM      5  CA  TYR     5       2.776 -18.349   7.264  1.00  0.00     0.191 C 
BRANCH   5   6
ATOM      6  N   TYR     5       4.049 -18.224   8.021  1.00  0.00    -0.228 NA
ATOM      7  C   GLU     4       5.230 -17.973   7.433  1.00  0.00     0.274 C 
ATOM      8  O   GLU     4       5.330 -17.689   6.246  1.00  0.00    -0.268 OA
BRANCH   7   9
ATOM      9  CA  GLU     4       6.422 -17.735   8.383  1.00  0.00     0.187 C 
BRANCH   9  10
ATOM     10  CB  GLU     4       7.621 -17.191   7.589  1.00  0.00     0.045 C 
BRANCH  10  11
ATOM     11  CG  GLU     4       8.756 -16.552   8.419  1.00  0.00     0.100 C 
BRANCH  11  12
ATOM     12  CD  GLU     4       8.487 -15.110   8.848  1.00  0.00     0.185 C 
ATOM     13  OE1 GLU     4       8.388 -14.246   7.938  1.00  0.00    -0.647 OA
ATOM     14  OE2 GLU     4       8.842 -14.793  10.001  1.00  0.00    -0.647 OA
ENDBRANCH  11  12
ENDBRANCH  10  11
ENDBRANCH   9  10
BRANCH   9  15
ATOM     15  N   GLU     4       6.846 -18.952   9.102  1.00  0.00    -0.229 NA
ATOM     16  C   PRO     3       7.286 -20.095   8.590  1.00  0.00     0.272 C 
ATOM     17  O   PRO     3       7.761 -20.190   7.457  1.00  0.00    -0.269 OA
BRANCH  16  18
ATOM     18  CA  PRO     3       7.646 -21.174   9.614  1.00  0.00     0.165 C 
ATOM     19  N   PRO     3       6.928 -22.455   9.445  1.00  0.00    -0.312 N 
ATOM     20  CD  PRO     3       7.860 -23.585   9.687  1.00  0.00     0.105 C 
ATOM     21  C   ASP     2       5.599 -22.552   9.259  1.00  0.00     0.257 C 
ATOM     22  CG  PRO     3       9.134 -22.918  10.228  1.00  0.00     0.027 C 
ATOM     23  CB  PRO     3       9.128 -21.540   9.572  1.00  0.00     0.034 C 
ATOM     24  O   ASP     2       4.868 -21.566   9.432  1.00  0.00    -0.270 OA
BRANCH  21  25
ATOM     25  CA  ASP     2       4.942 -23.949   9.181  1.00  0.00     0.195 C 
BRANCH  25  26
ATOM     26  CB  ASP     2       4.714 -24.525   7.759  1.00  0.00     0.132 C 
BRANCH  26  27
ATOM     27  CG  ASP     2       5.670 -25.704   7.497  1.00  0.00     0.188 C 
ATOM     28  OD2 ASP     2       6.754 -25.407   6.932  1.00  0.00    -0.647 OA
ATOM     29  OD1 ASP     2       5.142 -26.828   7.309  1.00  0.00    -0.647 OA
ENDBRANCH  26  27
ENDBRANCH  25  26
BRANCH  25  30
ATOM     30  N   ASP     2       3.583 -23.955   9.748  1.00  0.00    -0.228 NA
ATOM     31  C   TYR     1       3.152 -24.692  10.745  1.00  0.00     0.289 C 
ATOM     32  O   TYR     1       3.811 -25.421  11.493  1.00  0.00    -0.268 OA
BRANCH  31  33
ATOM     33  CA  TYR     1       1.639 -24.593  10.916  1.00  0.00     0.385 C 
ATOM     34  N   TYR     1       1.288 -25.226  12.198  1.00  0.00     0.626 N 
BRANCH  33  35
ATOM     35  CB  TYR     1       1.273 -23.111  10.876  1.00  0.00     0.075 C 
BRANCH  35  36
ATOM     36  CG  TYR     1       0.073 -22.813   9.965  1.00  0.00    -0.019 A 
ATOM     37  CD2 TYR     1      -0.548 -21.573   9.970  1.00  0.00    -0.002 A 
ATOM     38  CE2 TYR     1      -1.539 -21.286   9.044  1.00  0.00     0.027 A 
ATOM     39  CZ  TYR     1      -1.907 -22.260   8.117  1.00  0.00     0.131 A 
ATOM     40  CE1 TYR     1      -1.312 -23.509   8.144  1.00  0.00     0.027 A 
ATOM     41  OH  TYR     1      -2.728 -21.948   7.094  1.00  0.00    -0.190 OA
ATOM     42  CD1 TYR     1      -0.321 -23.796   9.070  1.00  0.00    -0.002 A 
ENDBRANCH  35  36
ENDBRANCH  33  35
ENDBRANCH  31  33
ENDBRANCH  25  30
ENDBRANCH  21  25
ENDBRANCH  16  18
ENDBRANCH   9  15
ENDBRANCH   7   9
ENDBRANCH   5   6
BRANCH   5  43
ATOM     43  CB  TYR     5       1.875 -19.409   7.920  1.00  0.00     0.060 C 
BRANCH  43  44
ATOM     44  CG  TYR     5       1.427 -20.492   6.924  1.00  0.00    -0.020 A 
ATOM     45  CD2 TYR     5       2.016 -21.750   6.934  1.00  0.00    -0.002 A 
ATOM     46  CE2 TYR     5       1.599 -22.725   6.033  1.00  0.00     0.027 A 
ATOM     47  CZ  TYR     5       0.593 -22.443   5.122  1.00  0.00     0.131 A 
ATOM     48  CE1 TYR     5      -0.014 -21.192   5.117  1.00  0.00     0.027 A 
ATOM     49  OH  TYR     5       0.280 -23.333   4.156  1.00  0.00    -0.190 OA
ATOM     50  CD1 TYR     5       0.412 -20.213   6.015  1.00  0.00    -0.002 A 
ENDBRANCH  43  44
ENDBRANCH   5  43
ENDBRANCH   3   5
ENDBRANCH   1   2
BRANCH   1  51
ATOM     51  CB  ARG     6      -1.299 -15.814   6.982  1.00  0.00     0.036 C 
BRANCH  51  52
ATOM     52  CG  ARG     6      -1.986 -17.152   7.269  1.00  0.00     0.029 C 
BRANCH  52  53
ATOM     53  CD  ARG     6      -3.005 -16.996   8.393  1.00  0.00     0.145 C 
BRANCH  53  54
ATOM     54  NE  ARG     6      -2.726 -17.933   9.494  1.00  0.00    -0.083 NA
ATOM     55  CZ  ARG     6      -3.304 -17.906  10.709  1.00  0.00     0.782 C 
ATOM     56  NH2 ARG     6      -2.915 -18.754  11.664  1.00  0.00     0.063 N 
ATOM     57  NH1 ARG     6      -4.208 -16.977  11.001  1.00  0.00     0.063 N 
ENDBRANCH  53  54
ENDBRANCH  52  53
ENDBRANCH  51  52
ENDBRANCH   1  51
BRANCH   1  58
ATOM     58  C   ARG     6      -0.252 -15.122   9.090  1.00  0.00     0.274 C 
ATOM     59  N   ASN     7      -0.841 -13.931   9.143  1.00  0.00    -0.228 NA
ATOM     60  O   ARG     6       0.063 -15.800  10.069  1.00  0.00    -0.268 OA
BRANCH  59  61
ATOM     61  CA  ASN     7      -1.294 -13.301  10.401  1.00  0.00     0.196 C 
BRANCH  61  62
ATOM     62  C   ASN     7      -2.824 -13.386  10.559  1.00  0.00     0.275 C 
ATOM     63  N   PHE     8      -3.550 -13.426   9.432  1.00  0.00    -0.228 NA
ATOM     64  O   ASN     7      -3.250 -13.793  11.623  1.00  0.00    -0.268 OA
BRANCH  63  65
ATOM     65  CA  PHE     8      -5.023 -13.594   9.377  1.00  0.00     0.191 C 
BRANCH  65  66
ATOM     66  CB  PHE     8      -5.670 -12.210   9.528  1.00  0.00     0.060 C 
BRANCH  66  67
ATOM     67  CG  PHE     8      -5.156 -11.154   8.531  1.00  0.00    -0.020 A 
ATOM     68  CD1 PHE     8      -4.366 -10.105   8.980  1.00  0.00    -0.004 A 
ATOM     69  CE1 PHE     8      -3.985  -9.095   8.097  1.00  0.00    -0.000 A 
ATOM     70  CZ  PHE     8      -4.387  -9.153   6.772  1.00  0.00    -0.000 A 
ATOM     71  CE2 PHE     8      -5.168 -10.211   6.317  1.00  0.00    -0.000 A 
ATOM     72  CD2 PHE     8      -5.548 -11.221   7.200  1.00  0.00    -0.004 A 
ENDBRANCH  66  67
ENDBRANCH  65  66
BRANCH  65  73
ATOM     73  C   PHE     8      -5.549 -14.337   8.128  1.00  0.00     0.275 C 
ATOM     74  N   TRP     9      -6.641 -15.084   8.298  1.00  0.00    -0.228 NA
ATOM     75  O   PHE     8      -4.858 -14.435   7.111  1.00  0.00    -0.268 OA
BRANCH  74  76
ATOM     76  CA  TRP     9      -7.324 -15.751   7.162  1.00  0.00     0.191 C 
BRANCH  76  77
ATOM     77  CB  TRP     9      -7.815 -17.133   7.621  1.00  0.00     0.062 C 
BRANCH  77  78
ATOM     78  CG  TRP     9      -6.685 -18.148   7.789  1.00  0.00     0.001 A 
ATOM     79  CD1 TRP     9      -5.938 -18.653   6.812  1.00  0.00     0.095 A 
ATOM     80  NE1 TRP     9      -5.267 -19.707   7.260  1.00  0.00    -0.244 NA
ATOM     81  CE2 TRP     9      -5.547 -19.899   8.540  1.00  0.00     0.081 A 
ATOM     82  CD2 TRP     9      -6.463 -18.930   8.918  1.00  0.00     0.015 A 
ATOM     83  CZ2 TRP     9      -5.189 -20.895   9.448  1.00  0.00     0.019 A 
ATOM     84  CE3 TRP     9      -7.039 -18.950  10.180  1.00  0.00     0.001 A 
ATOM     85  CZ3 TRP     9      -6.693 -19.951  11.082  1.00  0.00     0.000 A 
ATOM     86  CH2 TRP     9      -5.752 -20.911  10.716  1.00  0.00     0.002 A 
ENDBRANCH  77  78
ENDBRANCH  76  77
BRANCH  76  87
ATOM     87  C   TRP     9      -8.463 -14.924   6.524  1.00  0.00     0.275 C 
ATOM     88  O   TRP     9      -9.564 -14.849   7.061  1.00  0.00    -0.268 OA
ATOM     89  N   GLY    10      -8.147 -14.232   5.430  1.00  0.00    -0.226 NA
BRANCH  89  90
ATOM     90  CA  GLY    10      -9.091 -13.345   4.697  1.00  0.00     0.218 C 
BRANCH  90  91
ATOM     91  C   GLY    10      -9.516 -12.056   5.418  1.00  0.00     0.277 C 
ATOM     92  N   CYS    11     -10.810 -11.984   5.727  1.00  0.00    -0.228 NA
ATOM     93  O   GLY    10      -8.737 -11.116   5.527  1.00  0.00    -0.268 OA
BRANCH  92  94
ATOM     94  CA  CYS    11     -11.487 -10.876   6.438  1.00  0.00     0.198 C 
BRANCH  94  95
ATOM     95  C   CYS    11     -12.377 -11.487   7.538  1.00  0.00     0.275 C 
ATOM     96  O   CYS    11     -13.496 -11.023   7.725  1.00  0.00    -0.268 OA
ATOM     97  N   GLY    12     -11.789 -12.356   8.347  1.00  0.00    -0.225 NA
BRANCH  97  98
ATOM     98  CA  GLY    12     -12.489 -13.019   9.458  1.00  0.00     0.226 C 
BRANCH  98  99
ATOM     99  C   GLY    12     -12.650 -14.514   9.097  1.00  0.00     0.211 C 
ATOM    100  O1  GLY    12     -12.638 -15.330  10.053  1.00  0.00    -0.646 OA
ATOM    101  O2  GLY    12     -12.814 -14.807   7.898  1.00  0.00    -0.646 OA
ENDBRANCH  98  99
ENDBRANCH  97  98
ENDBRANCH  94  95
BRANCH  94 102
ATOM    102  CB  CYS    11     -12.440 -10.149   5.493  1.00  0.00     0.103 C 
ATOM    103  SG  CYS    11     -12.227  -8.332   5.370  1.00  0.00    -0.080 SA
ENDBRANCH  94 102
ENDBRANCH  92  94
ENDBRANCH  90  91
ENDBRANCH  89  90
ENDBRANCH  76  87
ENDBRANCH  74  76
ENDBRANCH  65  73
ENDBRANCH  63  65
ENDBRANCH  61  62
BRANCH  61 104
ATOM    104  CB  ASN     7      -0.815 -11.847  10.499  1.00  0.00     0.126 C 
BRANCH 104 105
ATOM    105  CG  ASN     7      -0.230 -11.450  11.867  1.00  0.00     0.276 C 
ATOM    106  ND2 ASN     7       0.934 -10.840  11.841  1.00  0.00    -0.107 N 
ATOM    107  OD1 ASN     7      -0.683 -11.791  12.952  1.00  0.00    -0.269 OA
ENDBRANCH 104 105
ENDBRANCH  61 104
ENDBRANCH  59  61
ENDBRANCH   1  58
TORSDOF 42
ENDMDL
MODEL 4
REMARK VINA RESULT:      -5.1      2.719      8.024
REMARK WARNING: 32 MAX_TORS EXCEEDED!!!
REMARK  42 active torsions:
REMARK  status: ('A' for Active; 'I' for Inactive)
REMARK    1  A    between atoms: CA_2  and  CB_3 
REMARK    2  A    between atoms: CA_2  and  C_11 
REMARK    3  A    between atoms: CB_3  and  CG_4 
REMARK       I    between atoms: C_11  and  N_13 
REMARK    4  A    between atoms: N_13  and  CA_14 
REMARK    5  A    between atoms: CA_14  and  CB_15 
REMARK    6  A    between atoms: CA_14  and  C_19 
REMARK    7  A    between atoms: CB_15  and  CG_16 
REMARK       I    between atoms: C_19  and  N_21 
REMARK    8  A    between atoms: CA_22  and  C_26 
REMARK       I    between atoms: C_26  and  N_28 
REMARK    9  A    between atoms: N_28  and  CA_29 
REMARK   10  A    between atoms: CA_29  and  C_35 
REMARK   11  A    between atoms: CA_29  and  CB_30 
REMARK   12  A    between atoms: CB_30  and  CG_31 
REMARK   13  A    between atoms: CG_31  and  CD_32 
REMARK       I    between atoms: C_35  and  N_37 
REMARK   14  A    between atoms: N_37  and  CA_38 
REMARK   15  A    between atoms: CA_38  and  CB_39 
REMARK   16  A    between atoms: CA_38  and  C_47 
REMARK   17  A    between atoms: CB_39  and  CG_40 
REMARK       I    between atoms: C_47  and  N_49 
REMARK   18  A    between atoms: N_49  and  CA_50 
REMARK   19  A    between atoms: CA_50  and  CB_51 
REMARK   20  A    between atoms: CA_50  and  C_58 
REMARK   21  A    between atoms: CB_51  and  CG_52 
REMARK   22  A    between atoms: CG_52  and  CD_53 
REMARK   23  A    between atoms: CD_53  and  NE_54 
REMARK       I    between atoms: C_58  and  N_60 
REMARK   24  A    between atoms: N_60  and  CA_61 
REMARK   25  A    between atoms: CA_61  and  C_66 
REMARK   26  A    between atoms: CA_61  and  CB_62 
REMARK   27  A    between atoms: CB_62  and  CG_63 
REMARK       I    between atoms: C_66  and  N_68 
REMARK   28  A    between atoms: N_68  and  CA_69 
REMARK   29  A    between atoms: CA_69  and  CB_70 
REMARK   30  A    between atoms: CA_69  and  C_77 
REMARK   31  A    between atoms: CB_70  and  CG_71 
REMARK       I    between atoms: C_77  and  N_79 
REMARK   32  A    between atoms: N_79  and  CA_80 
REMARK   33  A    between atoms: CA_80  and  CB_81 
REMARK   34  A    between atoms: CA_80  and  C_91 
REMARK   35  A    between atoms: CB_81  and  CG_82 
REMARK       I    between atoms: C_91  and  N_93 
REMARK   36  A    between atoms: N_93  and  CA_94 
REMARK   37  A    between atoms: CA_94  and  C_95 
REMARK       I    between atoms: C_95  and  N_97 
REMARK   38  A    between atoms: N_97  and  CA_98 
REMARK   39  A    between atoms: CA_98  and  C_101 
REMARK   40  A    between atoms: CA_98  and  CB_99 
REMARK       I    between atoms: C_101  and  N_103 
REMARK   41  A    between atoms: N_103  and  CA_104 
REMARK   42  A    between atoms: CA_104  and  C_105 
ROOT
ATOM      1  CA  ARG     6       0.050 -15.667   8.441  1.00  0.00     0.186 C 
ENDROOT
BRANCH   1   2
ATOM      2  N   ARG     6       0.551 -17.033   8.720  1.00  0.00    -0.229 NA
ATOM      3  C   TYR     5       1.689 -17.502   8.192  1.00  0.00     0.275 C 
ATOM      4  O   TYR     5       2.408 -16.818   7.463  1.00  0.00    -0.268 OA
BRANCH   3   5
ATOM      5  CA  TYR     5       2.133 -18.910   8.622  1.00  0.00     0.191 C 
BRANCH   5   6
ATOM      6  N   TYR     5       1.577 -19.993   7.770  1.00  0.00    -0.228 NA
ATOM      7  C   GLU     4       0.456 -20.667   8.079  1.00  0.00     0.274 C 
ATOM      8  O   GLU     4      -0.271 -20.348   9.010  1.00  0.00    -0.268 OA
BRANCH   7   9
ATOM      9  CA  GLU     4      -0.052 -21.659   7.012  1.00  0.00     0.187 C 
BRANCH   9  10
ATOM     10  CB  GLU     4      -1.059 -22.633   7.644  1.00  0.00     0.045 C 
BRANCH  10  11
ATOM     11  CG  GLU     4      -2.537 -22.449   7.234  1.00  0.00     0.100 C 
BRANCH  11  12
ATOM     12  CD  GLU     4      -2.738 -21.636   5.956  1.00  0.00     0.185 C 
ATOM     13  OE1 GLU     4      -3.315 -20.522   6.064  1.00  0.00    -0.647 OA
ATOM     14  OE2 GLU     4      -2.768 -22.274   4.884  1.00  0.00    -0.647 OA
ENDBRANCH  11  12
ENDBRANCH  10  11
ENDBRANCH   9  10
BRANCH   9  15
ATOM     15  N   GLU     4       1.029 -22.442   6.383  1.00  0.00    -0.229 NA
ATOM     16  C   PRO     3       1.846 -23.319   6.955  1.00  0.00     0.272 C 
ATOM     17  O   PRO     3       1.589 -23.891   8.015  1.00  0.00    -0.269 OA
BRANCH  16  18
ATOM     18  CA  PRO     3       2.869 -23.965   6.018  1.00  0.00     0.165 C 
ATOM     19  N   PRO     3       4.281 -23.678   6.349  1.00  0.00    -0.312 N 
ATOM     20  CD  PRO     3       5.097 -24.906   6.162  1.00  0.00     0.105 C 
ATOM     21  C   ASP     2       4.755 -22.449   6.621  1.00  0.00     0.257 C 
ATOM     22  CG  PRO     3       4.138 -25.899   5.487  1.00  0.00     0.027 C 
ATOM     23  CB  PRO     3       2.764 -25.488   6.008  1.00  0.00     0.034 C 
ATOM     24  O   ASP     2       4.060 -21.446   6.398  1.00  0.00    -0.270 OA
BRANCH  21  25
ATOM     25  CA  ASP     2       6.268 -22.254   6.870  1.00  0.00     0.195 C 
BRANCH  25  26
ATOM     26  CB  ASP     2       6.827 -22.824   8.199  1.00  0.00     0.132 C 
BRANCH  26  27
ATOM     27  CG  ASP     2       8.125 -23.614   7.942  1.00  0.00     0.188 C 
ATOM     28  OD2 ASP     2       8.045 -24.857   8.112  1.00  0.00    -0.647 OA
ATOM     29  OD1 ASP     2       9.205 -23.010   8.159  1.00  0.00    -0.647 OA
ENDBRANCH  26  27
ENDBRANCH  25  26
BRANCH  25  30
ATOM     30  N   ASP     2       6.637 -20.831   6.954  1.00  0.00    -0.228 NA
ATOM     31  C   TYR     1       7.715 -20.269   6.459  1.00  0.00     0.289 C 
ATOM     32  O   TYR     1       8.564 -20.774   5.717  1.00  0.00    -0.268 OA
BRANCH  31  33
ATOM     33  CA  TYR     1       7.872 -18.825   6.925  1.00  0.00     0.385 C 
ATOM     34  N   TYR     1       7.076 -17.972   6.027  1.00  0.00     0.626 N 
BRANCH  33  35
ATOM     35  CB  TYR     1       7.391 -18.759   8.373  1.00  0.00     0.075 C 
BRANCH  35  36
ATOM     36  CG  TYR     1       8.195 -17.769   9.229  1.00  0.00    -0.019 A 
ATOM     37  CD2 TYR     1       8.376 -17.971  10.589  1.00  0.00    -0.002 A 
ATOM     38  CE2 TYR     1       9.217 -17.138  11.311  1.00  0.00     0.027 A 
ATOM     39  CZ  TYR     1       9.870 -16.096  10.655  1.00  0.00     0.131 A 
ATOM     40  CE1 TYR     1       9.654 -15.876   9.307  1.00  0.00     0.027 A 
ATOM     41  OH  TYR     1      10.831 -15.393  11.288  1.00  0.00    -0.190 OA
ATOM     42  CD1 TYR     1       8.812 -16.708   8.584  1.00  0.00    -0.002 A 
ENDBRANCH  35  36
ENDBRANCH  33  35
ENDBRANCH  31  33
ENDBRANCH  25  30
ENDBRANCH  21  25
ENDBRANCH  16  18
ENDBRANCH   9  15
ENDBRANCH   7   9
ENDBRANCH   5   6
BRANCH   5  43
ATOM     43  CB  TYR     5       3.667 -19.011   8.670  1.00  0.00     0.060 C 
BRANCH  43  44
ATOM     44  CG  TYR     5       4.163 -19.778   9.907  1.00  0.00    -0.020 A 
ATOM     45  CD2 TYR     5       4.012 -21.156   9.993  1.00  0.00    -0.002 A 
ATOM     46  CE2 TYR     5       4.470 -21.843  11.113  1.00  0.00     0.027 A 
ATOM     47  CZ  TYR     5       5.079 -21.151  12.148  1.00  0.00     0.131 A 
ATOM     48  CE1 TYR     5       5.251 -19.774  12.063  1.00  0.00     0.027 A 
ATOM     49  OH  TYR     5       5.400 -21.787  13.296  1.00  0.00    -0.190 OA
ATOM     50  CD1 TYR     5       4.782 -19.087  10.943  1.00  0.00    -0.002 A 
ENDBRANCH  43  44
ENDBRANCH   5  43
ENDBRANCH   3   5
ENDBRANCH   1   2
BRANCH   1  51
ATOM     51  CB  ARG     6      -1.192 -15.659   7.556  1.00  0.00     0.036 C 
BRANCH  51  52
ATOM     52  CG  ARG     6      -1.695 -17.058   7.191  1.00  0.00     0.029 C 
BRANCH  52  53
ATOM     53  CD  ARG     6      -3.061 -17.313   7.822  1.00  0.00     0.145 C 
BRANCH  53  54
ATOM     54  NE  ARG     6      -3.147 -16.703   9.160  1.00  0.00    -0.083 NA
ATOM     55  CZ  ARG     6      -3.446 -17.357  10.298  1.00  0.00     0.782 C 
ATOM     56  NH2 ARG     6      -3.579 -16.692  11.447  1.00  0.00     0.063 N 
ATOM     57  NH1 ARG     6      -3.697 -18.662  10.277  1.00  0.00     0.063 N 
ENDBRANCH  53  54
ENDBRANCH  52  53
ENDBRANCH  51  52
ENDBRANCH   1  51
BRANCH   1  58
ATOM     58  C   ARG     6      -0.318 -14.904   9.720  1.00  0.00     0.274 C 
ATOM     59  N   ASN     7      -0.594 -13.613   9.562  1.00  0.00    -0.228 NA
ATOM     60  O   ARG     6      -0.334 -15.505  10.795  1.00  0.00    -0.268 OA
BRANCH  59  61
ATOM     61  CA  ASN     7      -1.063 -12.740  10.659  1.00  0.00     0.196 C 
BRANCH  61  62
ATOM     62  C   ASN     7      -2.594 -12.800  10.817  1.00  0.00     0.275 C 
ATOM     63  N   PHE     8      -3.322 -12.783   9.690  1.00  0.00    -0.228 NA
ATOM     64  O   ASN     7      -3.026 -13.238  11.865  1.00  0.00    -0.268 OA
BRANCH  63  65
ATOM     65  CA  PHE     8      -4.798 -12.920   9.632  1.00  0.00     0.191 C 
BRANCH  65  66
ATOM     66  CB  PHE     8      -5.415 -11.518   9.741  1.00  0.00     0.060 C 
BRANCH  66  67
ATOM     67  CG  PHE     8      -4.963 -10.536   8.644  1.00  0.00    -0.020 A 
ATOM     68  CD1 PHE     8      -4.242  -9.400   8.985  1.00  0.00    -0.004 A 
ATOM     69  CE1 PHE     8      -3.922  -8.461   8.005  1.00  0.00    -0.000 A 
ATOM     70  CZ  PHE     8      -4.312  -8.675   6.693  1.00  0.00    -0.000 A 
ATOM     71  CE2 PHE     8      -5.022  -9.820   6.346  1.00  0.00    -0.000 A 
ATOM     72  CD2 PHE     8      -5.343 -10.759   7.326  1.00  0.00    -0.004 A 
ENDBRANCH  66  67
ENDBRANCH  65  66
BRANCH  65  73
ATOM     73  C   PHE     8      -5.335 -13.685   8.401  1.00  0.00     0.275 C 
ATOM     74  N   TRP     9      -6.635 -13.986   8.410  1.00  0.00    -0.228 NA
ATOM     75  O   PHE     8      -4.563 -14.204   7.592  1.00  0.00    -0.268 OA
BRANCH  74  76
ATOM     76  CA  TRP     9      -7.307 -14.607   7.242  1.00  0.00     0.191 C 
BRANCH  76  77
ATOM     77  CB  TRP     9      -8.618 -15.257   7.713  1.00  0.00     0.062 C 
BRANCH  77  78
ATOM     78  CG  TRP     9      -9.146 -16.317   6.746  1.00  0.00     0.001 A 
ATOM     79  CD1 TRP     9      -8.511 -17.427   6.382  1.00  0.00     0.095 A 
ATOM     80  NE1 TRP     9      -9.111 -17.960   5.325  1.00  0.00    -0.244 NA
ATOM     81  CE2 TRP     9     -10.159 -17.221   4.991  1.00  0.00     0.081 A 
ATOM     82  CD2 TRP     9     -10.211 -16.149   5.868  1.00  0.00     0.015 A 
ATOM     83  CZ2 TRP     9     -11.060 -17.282   3.928  1.00  0.00     0.019 A 
ATOM     84  CE3 TRP     9     -11.137 -15.131   5.691  1.00  0.00     0.001 A 
ATOM     85  CZ3 TRP     9     -12.028 -15.184   4.624  1.00  0.00     0.000 A 
ATOM     86  CH2 TRP     9     -11.996 -16.274   3.756  1.00  0.00     0.002 A 
ENDBRANCH  77  78
ENDBRANCH  76  77
BRANCH  76  87
ATOM     87  C   TRP     9      -7.541 -13.650   6.052  1.00  0.00     0.275 C 
ATOM     88  O   TRP     9      -7.029 -13.868   4.958  1.00  0.00    -0.268 OA
ATOM     89  N   GLY    10      -8.398 -12.651   6.260  1.00  0.00    -0.226 NA
BRANCH  89  90
ATOM     90  CA  GLY    10      -8.788 -11.652   5.228  1.00  0.00     0.218 C 
BRANCH  90  91
ATOM     91  C   GLY    10     -10.108 -10.901   5.468  1.00  0.00     0.277 C 
ATOM     92  N   CYS    11     -11.014 -11.570   6.179  1.00  0.00    -0.228 NA
ATOM     93  O   GLY    10     -10.339  -9.846   4.889  1.00  0.00    -0.268 OA
BRANCH  92  94
ATOM     94  CA  CYS    11     -12.355 -11.086   6.578  1.00  0.00     0.198 C 
BRANCH  94  95
ATOM     95  C   CYS    11     -12.495 -11.268   8.102  1.00  0.00     0.275 C 
ATOM     96  O   CYS    11     -11.878 -12.173   8.653  1.00  0.00    -0.268 OA
ATOM     97  N   GLY    12     -13.438 -10.546   8.690  1.00  0.00    -0.225 NA
BRANCH  97  98
ATOM     98  CA  GLY    12     -13.714 -10.611  10.133  1.00  0.00     0.226 C 
BRANCH  98  99
ATOM     99  C   GLY    12     -13.778  -9.164  10.673  1.00  0.00     0.211 C 
ATOM    100  O1  GLY    12     -14.779  -8.866  11.373  1.00  0.00    -0.646 OA
ATOM    101  O2  GLY    12     -12.825  -8.406  10.413  1.00  0.00    -0.646 OA
ENDBRANCH  98  99
ENDBRANCH  97  98
ENDBRANCH  94  95
BRANCH  94 102
ATOM    102  CB  CYS    11     -13.438 -11.965   5.957  1.00  0.00     0.103 C 
ATOM    103  SG  CYS    11     -14.877 -11.085   5.235  1.00  0.00    -0.080 SA
ENDBRANCH  94 102
ENDBRANCH  92  94
ENDBRANCH  90  91
ENDBRANCH  89  90
ENDBRANCH  76  87
ENDBRANCH  74  76
ENDBRANCH  65  73
ENDBRANCH  63  65
ENDBRANCH  61  62
BRANCH  61 104
ATOM    104  CB  ASN     7      -0.591 -11.294  10.459  1.00  0.00     0.126 C 
BRANCH 104 105
ATOM    105  CG  ASN     7       0.195 -10.700  11.643  1.00  0.00     0.276 C 
ATOM    106  ND2 ASN     7      -0.225  -9.538  12.088  1.00  0.00    -0.107 N 
ATOM    107  OD1 ASN     7       1.247 -11.146  12.082  1.00  0.00    -0.269 OA
ENDBRANCH 104 105
ENDBRANCH  61 104
ENDBRANCH  59  61
ENDBRANCH   1  58
TORSDOF 42
ENDMDL
MODEL 5
REMARK VINA RESULT:      -5.1     15.757     23.712
REMARK WARNING: 32 MAX_TORS EXCEEDED!!!
REMARK  42 active torsions:
REMARK  status: ('A' for Active; 'I' for Inactive)
REMARK    1  A    between atoms: CA_2  and  CB_3 
REMARK    2  A    between atoms: CA_2  and  C_11 
REMARK    3  A    between atoms: CB_3  and  CG_4 
REMARK       I    between atoms: C_11  and  N_13 
REMARK    4  A    between atoms: N_13  and  CA_14 
REMARK    5  A    between atoms: CA_14  and  CB_15 
REMARK    6  A    between atoms: CA_14  and  C_19 
REMARK    7  A    between atoms: CB_15  and  CG_16 
REMARK       I    between atoms: C_19  and  N_21 
REMARK    8  A    between atoms: CA_22  and  C_26 
REMARK       I    between atoms: C_26  and  N_28 
REMARK    9  A    between atoms: N_28  and  CA_29 
REMARK   10  A    between atoms: CA_29  and  C_35 
REMARK   11  A    between atoms: CA_29  and  CB_30 
REMARK   12  A    between atoms: CB_30  and  CG_31 
REMARK   13  A    between atoms: CG_31  and  CD_32 
REMARK       I    between atoms: C_35  and  N_37 
REMARK   14  A    between atoms: N_37  and  CA_38 
REMARK   15  A    between atoms: CA_38  and  CB_39 
REMARK   16  A    between atoms: CA_38  and  C_47 
REMARK   17  A    between atoms: CB_39  and  CG_40 
REMARK       I    between atoms: C_47  and  N_49 
REMARK   18  A    between atoms: N_49  and  CA_50 
REMARK   19  A    between atoms: CA_50  and  CB_51 
REMARK   20  A    between atoms: CA_50  and  C_58 
REMARK   21  A    between atoms: CB_51  and  CG_52 
REMARK   22  A    between atoms: CG_52  and  CD_53 
REMARK   23  A    between atoms: CD_53  and  NE_54 
REMARK       I    between atoms: C_58  and  N_60 
REMARK   24  A    between atoms: N_60  and  CA_61 
REMARK   25  A    between atoms: CA_61  and  C_66 
REMARK   26  A    between atoms: CA_61  and  CB_62 
REMARK   27  A    between atoms: CB_62  and  CG_63 
REMARK       I    between atoms: C_66  and  N_68 
REMARK   28  A    between atoms: N_68  and  CA_69 
REMARK   29  A    between atoms: CA_69  and  CB_70 
REMARK   30  A    between atoms: CA_69  and  C_77 
REMARK   31  A    between atoms: CB_70  and  CG_71 
REMARK       I    between atoms: C_77  and  N_79 
REMARK   32  A    between atoms: N_79  and  CA_80 
REMARK   33  A    between atoms: CA_80  and  CB_81 
REMARK   34  A    between atoms: CA_80  and  C_91 
REMARK   35  A    between atoms: CB_81  and  CG_82 
REMARK       I    between atoms: C_91  and  N_93 
REMARK   36  A    between atoms: N_93  and  CA_94 
REMARK   37  A    between atoms: CA_94  and  C_95 
REMARK       I    between atoms: C_95  and  N_97 
REMARK   38  A    between atoms: N_97  and  CA_98 
REMARK   39  A    between atoms: CA_98  and  C_101 
REMARK   40  A    between atoms: CA_98  and  CB_99 
REMARK       I    between atoms: C_101  and  N_103 
REMARK   41  A    between atoms: N_103  and  CA_104 
REMARK   42  A    between atoms: CA_104  and  C_105 
ROOT
ATOM      1  CA  ARG     6       0.590   4.567   9.961  1.00  0.00     0.186 C 
ENDROOT
BRANCH   1   2
ATOM      2  N   ARG     6      -0.837   4.281   9.686  1.00  0.00    -0.229 NA
ATOM      3  C   TYR     5      -1.400   4.519   8.494  1.00  0.00     0.275 C 
ATOM      4  O   TYR     5      -0.761   4.964   7.540  1.00  0.00    -0.268 OA
BRANCH   3   5
ATOM      5  CA  TYR     5      -2.871   4.107   8.319  1.00  0.00     0.191 C 
BRANCH   5   6
ATOM      6  N   TYR     5      -3.379   3.243   9.416  1.00  0.00    -0.228 NA
ATOM      7  C   GLU     4      -3.375   1.901   9.354  1.00  0.00     0.274 C 
ATOM      8  O   GLU     4      -2.826   1.283   8.451  1.00  0.00    -0.268 OA
BRANCH   7   9
ATOM      9  CA  GLU     4      -3.808   1.163  10.637  1.00  0.00     0.187 C 
BRANCH   9  10
ATOM     10  CB  GLU     4      -2.926  -0.078  10.848  1.00  0.00     0.045 C 
BRANCH  10  11
ATOM     11  CG  GLU     4      -2.292  -0.236  12.248  1.00  0.00     0.100 C 
BRANCH  11  12
ATOM     12  CD  GLU     4      -0.779  -0.027  12.280  1.00  0.00     0.185 C 
ATOM     13  OE1 GLU     4      -0.213   0.269  11.196  1.00  0.00    -0.647 OA
ATOM     14  OE2 GLU     4      -0.154  -0.596  13.198  1.00  0.00    -0.647 OA
ENDBRANCH  11  12
ENDBRANCH  10  11
ENDBRANCH   9  10
BRANCH   9  15
ATOM     15  N   GLU     4      -5.221   0.739  10.616  1.00  0.00    -0.229 NA
ATOM     16  C   PRO     3      -5.807  -0.122   9.792  1.00  0.00     0.272 C 
ATOM     17  O   PRO     3      -5.189  -0.977   9.156  1.00  0.00    -0.269 OA
BRANCH  16  18
ATOM     18  CA  PRO     3      -7.301  -0.346  10.035  1.00  0.00     0.165 C 
ATOM     19  N   PRO     3      -8.144  -0.287   8.821  1.00  0.00    -0.312 N 
ATOM     20  CD  PRO     3      -9.181  -1.348   8.882  1.00  0.00     0.105 C 
ATOM     21  C   ASP     2      -8.062   0.687   7.897  1.00  0.00     0.257 C 
ATOM     22  CG  PRO     3      -9.060  -1.916  10.305  1.00  0.00     0.027 C 
ATOM     23  CB  PRO     3      -7.588  -1.712  10.653  1.00  0.00     0.034 C 
ATOM     24  O   ASP     2      -7.410   1.717   8.127  1.00  0.00    -0.270 OA
BRANCH  21  25
ATOM     25  CA  ASP     2      -9.053   0.695   6.711  1.00  0.00     0.195 C 
BRANCH  25  26
ATOM     26  CB  ASP     2      -8.743  -0.282   5.547  1.00  0.00     0.132 C 
BRANCH  26  27
ATOM     27  CG  ASP     2      -7.510   0.196   4.759  1.00  0.00     0.188 C 
ATOM     28  OD2 ASP     2      -7.713   0.468   3.548  1.00  0.00    -0.647 OA
ATOM     29  OD1 ASP     2      -6.395  -0.245   5.133  1.00  0.00    -0.647 OA
ENDBRANCH  26  27
ENDBRANCH  25  26
BRANCH  25  30
ATOM     30  N   ASP     2      -9.091   2.000   6.029  1.00  0.00    -0.228 NA
ATOM     31  C   TYR     1     -10.163   2.657   5.652  1.00  0.00     0.289 C 
ATOM     32  O   TYR     1     -11.344   2.395   5.903  1.00  0.00    -0.268 OA
BRANCH  31  33
ATOM     33  CA  TYR     1      -9.818   3.864   4.785  1.00  0.00     0.385 C 
ATOM     34  N   TYR     1     -10.677   4.983   5.206  1.00  0.00     0.626 N 
BRANCH  33  35
ATOM     35  CB  TYR     1      -8.333   4.158   4.986  1.00  0.00     0.075 C 
BRANCH  35  36
ATOM     36  CG  TYR     1      -8.079   5.367   5.900  1.00  0.00    -0.019 A 
ATOM     37  CD2 TYR     1      -7.829   5.209   7.254  1.00  0.00    -0.002 A 
ATOM     38  CE2 TYR     1      -7.470   6.301   8.030  1.00  0.00     0.027 A 
ATOM     39  CZ  TYR     1      -7.370   7.556   7.431  1.00  0.00     0.131 A 
ATOM     40  CE1 TYR     1      -7.661   7.714   6.088  1.00  0.00     0.027 A 
ATOM     41  OH  TYR     1      -6.844   8.593   8.114  1.00  0.00    -0.190 OA
ATOM     42  CD1 TYR     1      -8.020   6.622   5.313  1.00  0.00    -0.002 A 
ENDBRANCH  35  36
ENDBRANCH  33  35
ENDBRANCH  31  33
ENDBRANCH  25  30
ENDBRANCH  21  25
ENDBRANCH  16  18
ENDBRANCH   9  15
ENDBRANCH   7   9
ENDBRANCH   5   6
BRANCH   5  43
ATOM     43  CB  TYR     5      -3.772   5.343   8.161  1.00  0.00     0.060 C 
BRANCH  43  44
ATOM     44  CG  TYR     5      -4.078   5.659   6.687  1.00  0.00    -0.020 A 
ATOM     45  CD2 TYR     5      -4.036   6.966   6.220  1.00  0.00    -0.002 A 
ATOM     46  CE2 TYR     5      -4.307   7.240   4.883  1.00  0.00     0.027 A 
ATOM     47  CZ  TYR     5      -4.619   6.207   4.013  1.00  0.00     0.131 A 
ATOM     48  CE1 TYR     5      -4.646   4.894   4.469  1.00  0.00     0.027 A 
ATOM     49  OH  TYR     5      -5.019   6.478   2.751  1.00  0.00    -0.190 OA
ATOM     50  CD1 TYR     5      -4.383   4.623   5.811  1.00  0.00    -0.002 A 
ENDBRANCH  43  44
ENDBRANCH   5  43
ENDBRANCH   3   5
ENDBRANCH   1   2
BRANCH   1  51
ATOM     51  CB  ARG     6       0.786   5.608  11.058  1.00  0.00     0.036 C 
BRANCH  51  52
ATOM     52  CG  ARG     6      -0.487   6.386  11.402  1.00  0.00     0.029 C 
BRANCH  52  53
ATOM     53  CD  ARG     6      -0.938   6.065  12.824  1.00  0.00     0.145 C 
BRANCH  53  54
ATOM     54  NE  ARG     6      -2.342   5.625  12.845  1.00  0.00    -0.083 NA
ATOM     55  CZ  ARG     6      -2.760   4.345  12.882  1.00  0.00     0.782 C 
ATOM     56  NH2 ARG     6      -4.061   4.055  12.813  1.00  0.00     0.063 N 
ATOM     57  NH1 ARG     6      -1.878   3.352  12.899  1.00  0.00     0.063 N 
ENDBRANCH  53  54
ENDBRANCH  52  53
ENDBRANCH  51  52
ENDBRANCH   1  51
BRANCH   1  58
ATOM     58  C   ARG     6       1.365   3.317  10.399  1.00  0.00     0.274 C 
ATOM     59  N   ASN     7       2.017   2.675   9.433  1.00  0.00    -0.228 NA
ATOM     60  O   ARG     6       1.343   2.980  11.583  1.00  0.00    -0.268 OA
BRANCH  59  61
ATOM     61  CA  ASN     7       2.895   1.512   9.678  1.00  0.00     0.196 C 
BRANCH  61  62
ATOM     62  C   ASN     7       4.359   1.818   9.306  1.00  0.00     0.275 C 
ATOM     63  N   PHE     8       4.567   2.488   8.162  1.00  0.00    -0.228 NA
ATOM     64  O   ASN     7       5.176   1.794  10.205  1.00  0.00    -0.268 OA
BRANCH  63  65
ATOM     65  CA  PHE     8       5.892   2.948   7.679  1.00  0.00     0.191 C 
BRANCH  65  66
ATOM     66  CB  PHE     8       6.194   2.234   6.354  1.00  0.00     0.060 C 
BRANCH  66  67
ATOM     67  CG  PHE     8       7.276   1.142   6.452  1.00  0.00    -0.020 A 
ATOM     68  CD1 PHE     8       7.684   0.467   5.310  1.00  0.00    -0.004 A 
ATOM     69  CE1 PHE     8       8.588  -0.590   5.415  1.00  0.00    -0.000 A 
ATOM     70  CZ  PHE     8       9.085  -0.950   6.657  1.00  0.00    -0.000 A 
ATOM     71  CE2 PHE     8       8.688  -0.266   7.801  1.00  0.00    -0.000 A 
ATOM     72  CD2 PHE     8       7.784   0.791   7.697  1.00  0.00    -0.004 A 
ENDBRANCH  66  67
ENDBRANCH  65  66
BRANCH  65  73
ATOM     73  C   PHE     8       6.042   4.481   7.549  1.00  0.00     0.275 C 
ATOM     74  N   TRP     9       5.673   5.205   8.606  1.00  0.00    -0.228 NA
ATOM     75  O   PHE     8       6.247   5.006   6.452  1.00  0.00    -0.268 OA
BRANCH  74  76
ATOM     76  CA  TRP     9       5.878   6.673   8.665  1.00  0.00     0.191 C 
BRANCH  76  77
ATOM     77  CB  TRP     9       4.737   7.301   9.483  1.00  0.00     0.062 C 
BRANCH  77  78
ATOM     78  CG  TRP     9       3.436   7.439   8.693  1.00  0.00     0.001 A 
ATOM     79  CD1 TRP     9       2.865   6.489   7.958  1.00  0.00     0.095 A 
ATOM     80  NE1 TRP     9       1.928   7.024   7.185  1.00  0.00    -0.244 NA
ATOM     81  CE2 TRP     9       1.855   8.327   7.413  1.00  0.00     0.081 A 
ATOM     82  CD2 TRP     9       2.814   8.639   8.364  1.00  0.00     0.015 A 
ATOM     83  CZ2 TRP     9       1.118   9.352   6.821  1.00  0.00     0.019 A 
ATOM     84  CE3 TRP     9       3.059   9.957   8.719  1.00  0.00     0.001 A 
ATOM     85  CZ3 TRP     9       2.335  10.982   8.120  1.00  0.00     0.000 A 
ATOM     86  CH2 TRP     9       1.351  10.670   7.183  1.00  0.00     0.002 A 
ENDBRANCH  77  78
ENDBRANCH  76  77
BRANCH  76  87
ATOM     87  C   TRP     9       7.264   7.106   9.196  1.00  0.00     0.275 C 
ATOM     88  O   TRP     9       7.572   6.929  10.370  1.00  0.00    -0.268 OA
ATOM     89  N   GLY    10       8.119   7.580   8.290  1.00  0.00    -0.226 NA
BRANCH  89  90
ATOM     90  CA  GLY    10       9.512   8.007   8.595  1.00  0.00     0.218 C 
BRANCH  90  91
ATOM     91  C   GLY    10      10.625   7.006   8.245  1.00  0.00     0.277 C 
ATOM     92  N   CYS    11      10.275   5.723   8.328  1.00  0.00    -0.228 NA
ATOM     93  O   GLY    10      11.777   7.388   8.079  1.00  0.00    -0.268 OA
BRANCH  92  94
ATOM     94  CA  CYS    11      11.132   4.554   8.028  1.00  0.00     0.198 C 
BRANCH  94  95
ATOM     95  C   CYS    11      11.159   4.361   6.499  1.00  0.00     0.275 C 
ATOM     96  O   CYS    11      12.041   4.907   5.845  1.00  0.00    -0.268 OA
ATOM     97  N   GLY    12      10.098   3.771   5.968  1.00  0.00    -0.225 NA
BRANCH  97  98
ATOM     98  CA  GLY    12       9.956   3.524   4.525  1.00  0.00     0.226 C 
BRANCH  98  99
ATOM     99  C   GLY    12      10.608   2.158   4.208  1.00  0.00     0.211 C 
ATOM    100  O1  GLY    12      11.367   1.677   5.087  1.00  0.00    -0.646 OA
ATOM    101  O2  GLY    12      10.313   1.611   3.129  1.00  0.00    -0.646 OA
ENDBRANCH  98  99
ENDBRANCH  97  98
ENDBRANCH  94  95
BRANCH  94 102
ATOM    102  CB  CYS    11      10.503   3.283   8.593  1.00  0.00     0.103 C 
ATOM    103  SG  CYS    11       9.217   3.520   9.879  1.00  0.00    -0.080 SA
ENDBRANCH  94 102
ENDBRANCH  92  94
ENDBRANCH  90  91
ENDBRANCH  89  90
ENDBRANCH  76  87
ENDBRANCH  74  76
ENDBRANCH  65  73
ENDBRANCH  63  65
ENDBRANCH  61  62
BRANCH  61 104
ATOM    104  CB  ASN     7       2.391   0.268   8.934  1.00  0.00     0.126 C 
BRANCH 104 105
ATOM    105  CG  ASN     7       2.670  -1.069   9.645  1.00  0.00     0.276 C 
ATOM    106  ND2 ASN     7       2.833  -1.006  10.947  1.00  0.00    -0.107 N 
ATOM    107  OD1 ASN     7       2.901  -2.131   9.080  1.00  0.00    -0.269 OA
ENDBRANCH 104 105
ENDBRANCH  61 104
ENDBRANCH  59  61
ENDBRANCH   1  58
TORSDOF 42
ENDMDL
MODEL 6
REMARK VINA RESULT:      -4.9      1.761      2.928
REMARK WARNING: 32 MAX_TORS EXCEEDED!!!
REMARK  42 active torsions:
REMARK  status: ('A' for Active; 'I' for Inactive)
REMARK    1  A    between atoms: CA_2  and  CB_3 
REMARK    2  A    between atoms: CA_2  and  C_11 
REMARK    3  A    between atoms: CB_3  and  CG_4 
REMARK       I    between atoms: C_11  and  N_13 
REMARK    4  A    between atoms: N_13  and  CA_14 
REMARK    5  A    between atoms: CA_14  and  CB_15 
REMARK    6  A    between atoms: CA_14  and  C_19 
REMARK    7  A    between atoms: CB_15  and  CG_16 
REMARK       I    between atoms: C_19  and  N_21 
REMARK    8  A    between atoms: CA_22  and  C_26 
REMARK       I    between atoms: C_26  and  N_28 
REMARK    9  A    between atoms: N_28  and  CA_29 
REMARK   10  A    between atoms: CA_29  and  C_35 
REMARK   11  A    between atoms: CA_29  and  CB_30 
REMARK   12  A    between atoms: CB_30  and  CG_31 
REMARK   13  A    between atoms: CG_31  and  CD_32 
REMARK       I    between atoms: C_35  and  N_37 
REMARK   14  A    between atoms: N_37  and  CA_38 
REMARK   15  A    between atoms: CA_38  and  CB_39 
REMARK   16  A    between atoms: CA_38  and  C_47 
REMARK   17  A    between atoms: CB_39  and  CG_40 
REMARK       I    between atoms: C_47  and  N_49 
REMARK   18  A    between atoms: N_49  and  CA_50 
REMARK   19  A    between atoms: CA_50  and  CB_51 
REMARK   20  A    between atoms: CA_50  and  C_58 
REMARK   21  A    between atoms: CB_51  and  CG_52 
REMARK   22  A    between atoms: CG_52  and  CD_53 
REMARK   23  A    between atoms: CD_53  and  NE_54 
REMARK       I    between atoms: C_58  and  N_60 
REMARK   24  A    between atoms: N_60  and  CA_61 
REMARK   25  A    between atoms: CA_61  and  C_66 
REMARK   26  A    between atoms: CA_61  and  CB_62 
REMARK   27  A    between atoms: CB_62  and  CG_63 
REMARK       I    between atoms: C_66  and  N_68 
REMARK   28  A    between atoms: N_68  and  CA_69 
REMARK   29  A    between atoms: CA_69  and  CB_70 
REMARK   30  A    between atoms: CA_69  and  C_77 
REMARK   31  A    between atoms: CB_70  and  CG_71 
REMARK       I    between atoms: C_77  and  N_79 
REMARK   32  A    between atoms: N_79  and  CA_80 
REMARK   33  A    between atoms: CA_80  and  CB_81 
REMARK   34  A    between atoms: CA_80  and  C_91 
REMARK   35  A    between atoms: CB_81  and  CG_82 
REMARK       I    between atoms: C_91  and  N_93 
REMARK   36  A    between atoms: N_93  and  CA_94 
REMARK   37  A    between atoms: CA_94  and  C_95 
REMARK       I    between atoms: C_95  and  N_97 
REMARK   38  A    between atoms: N_97  and  CA_98 
REMARK   39  A    between atoms: CA_98  and  C_101 
REMARK   40  A    between atoms: CA_98  and  CB_99 
REMARK       I    between atoms: C_101  and  N_103 
REMARK   41  A    between atoms: N_103  and  CA_104 
REMARK   42  A    between atoms: CA_104  and  C_105 
ROOT
ATOM      1  CA  ARG     6      -1.797 -13.415   9.807  1.00  0.00     0.186 C 
ENDROOT
BRANCH   1   2
ATOM      2  N   ARG     6      -1.676 -14.674   9.035  1.00  0.00    -0.229 NA
ATOM      3  C   TYR     5      -0.966 -15.721   9.475  1.00  0.00     0.275 C 
ATOM      4  O   TYR     5      -0.391 -15.716  10.564  1.00  0.00    -0.268 OA
BRANCH   3   5
ATOM      5  CA  TYR     5      -0.984 -16.992   8.611  1.00  0.00     0.191 C 
BRANCH   5   6
ATOM      6  N   TYR     5       0.361 -17.591   8.410  1.00  0.00    -0.228 NA
ATOM      7  C   GLU     4       1.277 -17.074   7.575  1.00  0.00     0.274 C 
ATOM      8  O   GLU     4       1.130 -15.992   7.021  1.00  0.00    -0.268 OA
BRANCH   7   9
ATOM      9  CA  GLU     4       2.667 -17.742   7.597  1.00  0.00     0.187 C 
BRANCH   9  10
ATOM     10  CB  GLU     4       3.572 -17.099   6.534  1.00  0.00     0.045 C 
BRANCH  10  11
ATOM     11  CG  GLU     4       4.965 -16.634   7.013  1.00  0.00     0.100 C 
BRANCH  11  12
ATOM     12  CD  GLU     4       6.117 -17.533   6.566  1.00  0.00     0.185 C 
ATOM     13  OE1 GLU     4       5.852 -18.744   6.345  1.00  0.00    -0.647 OA
ATOM     14  OE2 GLU     4       7.267 -17.175   6.891  1.00  0.00    -0.647 OA
ENDBRANCH  11  12
ENDBRANCH  10  11
ENDBRANCH   9  10
BRANCH   9  15
ATOM     15  N   GLU     4       2.617 -19.197   7.354  1.00  0.00    -0.229 NA
ATOM     16  C   PRO     3       3.157 -20.169   8.081  1.00  0.00     0.272 C 
ATOM     17  O   PRO     3       3.466 -20.035   9.266  1.00  0.00    -0.269 OA
BRANCH  16  18
ATOM     18  CA  PRO     3       2.923 -21.586   7.553  1.00  0.00     0.165 C 
ATOM     19  N   PRO     3       1.571 -21.830   7.006  1.00  0.00    -0.312 N 
ATOM     20  CD  PRO     3       1.672 -22.662   5.780  1.00  0.00     0.105 C 
ATOM     21  C   ASP     2       0.433 -21.476   7.630  1.00  0.00     0.257 C 
ATOM     22  CG  PRO     3       3.146 -23.094   5.735  1.00  0.00     0.027 C 
ATOM     23  CB  PRO     3       3.882 -21.947   6.422  1.00  0.00     0.034 C 
ATOM     24  O   ASP     2       0.455 -21.110   8.815  1.00  0.00    -0.270 OA
BRANCH  21  25
ATOM     25  CA  ASP     2      -0.928 -21.859   7.004  1.00  0.00     0.195 C 
BRANCH  25  26
ATOM     26  CB  ASP     2      -1.457 -20.929   5.882  1.00  0.00     0.132 C 
BRANCH  26  27
ATOM     27  CG  ASP     2      -2.138 -21.755   4.775  1.00  0.00     0.188 C 
ATOM     28  OD2 ASP     2      -1.490 -22.753   4.368  1.00  0.00    -0.647 OA
ATOM     29  OD1 ASP     2      -2.904 -21.133   3.998  1.00  0.00    -0.647 OA
ENDBRANCH  26  27
ENDBRANCH  25  26
BRANCH  25  30
ATOM     30  N   ASP     2      -2.021 -21.821   7.991  1.00  0.00    -0.228 NA
ATOM     31  C   TYR     1      -2.932 -22.745   8.188  1.00  0.00     0.289 C 
ATOM     32  O   TYR     1      -2.987 -23.877   7.697  1.00  0.00    -0.268 OA
BRANCH  31  33
ATOM     33  CA  TYR     1      -4.030 -22.272   9.135  1.00  0.00     0.385 C 
ATOM     34  N   TYR     1      -3.465 -22.227  10.494  1.00  0.00     0.626 N 
BRANCH  33  35
ATOM     35  CB  TYR     1      -4.491 -20.900   8.649  1.00  0.00     0.075 C 
BRANCH  35  36
ATOM     36  CG  TYR     1      -5.407 -20.975   7.418  1.00  0.00    -0.019 A 
ATOM     37  CD2 TYR     1      -6.512 -21.811   7.389  1.00  0.00    -0.002 A 
ATOM     38  CE2 TYR     1      -7.397 -21.761   6.323  1.00  0.00     0.027 A 
ATOM     39  CZ  TYR     1      -7.157 -20.866   5.281  1.00  0.00     0.131 A 
ATOM     40  CE1 TYR     1      -6.030 -20.064   5.296  1.00  0.00     0.027 A 
ATOM     41  OH  TYR     1      -8.093 -20.664   4.332  1.00  0.00    -0.190 OA
ATOM     42  CD1 TYR     1      -5.145 -20.114   6.362  1.00  0.00    -0.002 A 
ENDBRANCH  35  36
ENDBRANCH  33  35
ENDBRANCH  31  33
ENDBRANCH  25  30
ENDBRANCH  21  25
ENDBRANCH  16  18
ENDBRANCH   9  15
ENDBRANCH   7   9
ENDBRANCH   5   6
BRANCH   5  43
ATOM     43  CB  TYR     5      -1.946 -18.040   9.196  1.00  0.00     0.060 C 
BRANCH  43  44
ATOM     44  CG  TYR     5      -3.298 -17.429   9.602  1.00  0.00    -0.020 A 
ATOM     45  CD2 TYR     5      -4.244 -17.103   8.639  1.00  0.00    -0.002 A 
ATOM     46  CE2 TYR     5      -5.467 -16.557   9.017  1.00  0.00     0.027 A 
ATOM     47  CZ  TYR     5      -5.744 -16.338  10.358  1.00  0.00     0.131 A 
ATOM     48  CE1 TYR     5      -4.809 -16.679  11.329  1.00  0.00     0.027 A 
ATOM     49  OH  TYR     5      -6.867 -15.683  10.722  1.00  0.00    -0.190 OA
ATOM     50  CD1 TYR     5      -3.580 -17.218  10.947  1.00  0.00    -0.002 A 
ENDBRANCH  43  44
ENDBRANCH   5  43
ENDBRANCH   3   5
ENDBRANCH   1   2
BRANCH   1  51
ATOM     51  CB  ARG     6      -0.761 -12.370   9.406  1.00  0.00     0.036 C 
BRANCH  51  52
ATOM     52  CG  ARG     6      -0.594 -11.245  10.429  1.00  0.00     0.029 C 
BRANCH  52  53
ATOM     53  CD  ARG     6       0.148 -11.753  11.661  1.00  0.00     0.145 C 
BRANCH  53  54
ATOM     54  NE  ARG     6       1.191 -10.800  12.079  1.00  0.00    -0.083 NA
ATOM     55  CZ  ARG     6       1.101  -9.950  13.120  1.00  0.00     0.782 C 
ATOM     56  NH2 ARG     6       2.074  -9.069  13.360  1.00  0.00     0.063 N 
ATOM     57  NH1 ARG     6       0.004  -9.920  13.868  1.00  0.00     0.063 N 
ENDBRANCH  53  54
ENDBRANCH  52  53
ENDBRANCH  51  52
ENDBRANCH   1  51
BRANCH   1  58
ATOM     58  C   ARG     6      -3.172 -12.756   9.643  1.00  0.00     0.274 C 
ATOM     59  N   ASN     7      -3.370 -12.111   8.496  1.00  0.00    -0.228 NA
ATOM     60  O   ARG     6      -3.997 -12.849  10.553  1.00  0.00    -0.268 OA
BRANCH  59  61
ATOM     61  CA  ASN     7      -4.660 -11.499   8.118  1.00  0.00     0.196 C 
BRANCH  61  62
ATOM     62  C   ASN     7      -5.523 -12.466   7.283  1.00  0.00     0.275 C 
ATOM     63  N   PHE     8      -6.838 -12.488   7.546  1.00  0.00    -0.228 NA
ATOM     64  O   ASN     7      -5.064 -12.842   6.221  1.00  0.00    -0.268 OA
BRANCH  63  65
ATOM     65  CA  PHE     8      -7.840 -13.284   6.795  1.00  0.00     0.191 C 
BRANCH  65  66
ATOM     66  CB  PHE     8      -8.737 -14.007   7.810  1.00  0.00     0.060 C 
BRANCH  66  67
ATOM     67  CG  PHE     8      -8.780 -15.537   7.644  1.00  0.00    -0.020 A 
ATOM     68  CD1 PHE     8      -9.338 -16.327   8.640  1.00  0.00    -0.004 A 
ATOM     69  CE1 PHE     8      -9.284 -17.717   8.536  1.00  0.00    -0.000 A 
ATOM     70  CZ  PHE     8      -8.688 -18.301   7.430  1.00  0.00    -0.000 A 
ATOM     71  CE2 PHE     8      -8.140 -17.512   6.424  1.00  0.00    -0.000 A 
ATOM     72  CD2 PHE     8      -8.193 -16.122   6.529  1.00  0.00    -0.004 A 
ENDBRANCH  66  67
ENDBRANCH  65  66
BRANCH  65  73
ATOM     73  C   PHE     8      -8.671 -12.484   5.767  1.00  0.00     0.275 C 
ATOM     74  N   TRP     9      -9.987 -12.433   5.978  1.00  0.00    -0.228 NA
ATOM     75  O   PHE     8      -8.181 -12.137   4.689  1.00  0.00    -0.268 OA
BRANCH  74  76
ATOM     76  CA  TRP     9     -10.887 -11.601   5.142  1.00  0.00     0.191 C 
BRANCH  76  77
ATOM     77  CB  TRP     9     -11.891 -12.520   4.428  1.00  0.00     0.062 C 
BRANCH  77  78
ATOM     78  CG  TRP     9     -11.301 -13.879   4.052  1.00  0.00     0.001 A 
ATOM     79  CD1 TRP     9     -10.784 -14.206   2.872  1.00  0.00     0.095 A 
ATOM     80  NE1 TRP     9     -10.641 -15.523   2.795  1.00  0.00    -0.244 NA
ATOM     81  CE2 TRP     9     -11.042 -16.079   3.928  1.00  0.00     0.081 A 
ATOM     82  CD2 TRP     9     -11.487 -15.063   4.759  1.00  0.00     0.015 A 
ATOM     83  CZ2 TRP     9     -11.184 -17.406   4.333  1.00  0.00     0.019 A 
ATOM     84  CE3 TRP     9     -12.083 -15.351   5.977  1.00  0.00     0.001 A 
ATOM     85  CZ3 TRP     9     -12.237 -16.674   6.377  1.00  0.00     0.000 A 
ATOM     86  CH2 TRP     9     -11.767 -17.698   5.557  1.00  0.00     0.002 A 
ENDBRANCH  77  78
ENDBRANCH  76  77
BRANCH  76  87
ATOM     87  C   TRP     9     -11.600 -10.462   5.905  1.00  0.00     0.275 C 
ATOM     88  O   TRP     9     -11.570  -9.308   5.488  1.00  0.00    -0.268 OA
ATOM     89  N   GLY    10     -12.319 -10.825   6.966  1.00  0.00    -0.226 NA
BRANCH  89  90
ATOM     90  CA  GLY    10     -13.112  -9.883   7.804  1.00  0.00     0.218 C 
BRANCH  90  91
ATOM     91  C   GLY    10     -14.641  -9.981   7.680  1.00  0.00     0.277 C 
ATOM     92  N   CYS    11     -15.304  -8.866   7.984  1.00  0.00    -0.228 NA
ATOM     93  O   GLY    10     -15.183 -11.064   7.487  1.00  0.00    -0.268 OA
BRANCH  92  94
ATOM     94  CA  CYS    11     -16.770  -8.669   7.931  1.00  0.00     0.198 C 
BRANCH  94  95
ATOM     95  C   CYS    11     -17.041  -7.205   7.534  1.00  0.00     0.275 C 
ATOM     96  O   CYS    11     -18.048  -6.649   7.959  1.00  0.00    -0.268 OA
ATOM     97  N   GLY    12     -16.259  -6.703   6.589  1.00  0.00    -0.225 NA
BRANCH  97  98
ATOM     98  CA  GLY    12     -16.394  -5.328   6.083  1.00  0.00     0.226 C 
BRANCH  98  99
ATOM     99  C   GLY    12     -17.163  -5.386   4.743  1.00  0.00     0.211 C 
ATOM    100  O1  GLY    12     -17.963  -4.444   4.511  1.00  0.00    -0.646 OA
ATOM    101  O2  GLY    12     -16.917  -6.332   3.973  1.00  0.00    -0.646 OA
ENDBRANCH  98  99
ENDBRANCH  97  98
ENDBRANCH  94  95
BRANCH  94 102
ATOM    102  CB  CYS    11     -17.373  -8.837   9.323  1.00  0.00     0.103 C 
ATOM    103  SG  CYS    11     -18.656 -10.136   9.496  1.00  0.00    -0.080 SA
ENDBRANCH  94 102
ENDBRANCH  92  94
ENDBRANCH  90  91
ENDBRANCH  89  90
ENDBRANCH  76  87
ENDBRANCH  74  76
ENDBRANCH  65  73
ENDBRANCH  63  65
ENDBRANCH  61  62
BRANCH  61 104
ATOM    104  CB  ASN     7      -4.451 -10.174   7.374  1.00  0.00     0.126 C 
BRANCH 104 105
ATOM    105  CG  ASN     7      -4.582  -8.913   8.248  1.00  0.00     0.276 C 
ATOM    106  ND2 ASN     7      -5.490  -8.042   7.871  1.00  0.00    -0.107 N 
ATOM    107  OD1 ASN     7      -3.816  -8.601   9.151  1.00  0.00    -0.269 OA
ENDBRANCH 104 105
ENDBRANCH  61 104
ENDBRANCH  59  61
ENDBRANCH   1  58
TORSDOF 42
ENDMDL
MODEL 7
REMARK VINA RESULT:      -4.8      3.619      8.379
REMARK WARNING: 32 MAX_TORS EXCEEDED!!!
REMARK  42 active torsions:
REMARK  status: ('A' for Active; 'I' for Inactive)
REMARK    1  A    between atoms: CA_2  and  CB_3 
REMARK    2  A    between atoms: CA_2  and  C_11 
REMARK    3  A    between atoms: CB_3  and  CG_4 
REMARK       I    between atoms: C_11  and  N_13 
REMARK    4  A    between atoms: N_13  and  CA_14 
REMARK    5  A    between atoms: CA_14  and  CB_15 
REMARK    6  A    between atoms: CA_14  and  C_19 
REMARK    7  A    between atoms: CB_15  and  CG_16 
REMARK       I    between atoms: C_19  and  N_21 
REMARK    8  A    between atoms: CA_22  and  C_26 
REMARK       I    between atoms: C_26  and  N_28 
REMARK    9  A    between atoms: N_28  and  CA_29 
REMARK   10  A    between atoms: CA_29  and  C_35 
REMARK   11  A    between atoms: CA_29  and  CB_30 
REMARK   12  A    between atoms: CB_30  and  CG_31 
REMARK   13  A    between atoms: CG_31  and  CD_32 
REMARK       I    between atoms: C_35  and  N_37 
REMARK   14  A    between atoms: N_37  and  CA_38 
REMARK   15  A    between atoms: CA_38  and  CB_39 
REMARK   16  A    between atoms: CA_38  and  C_47 
REMARK   17  A    between atoms: CB_39  and  CG_40 
REMARK       I    between atoms: C_47  and  N_49 
REMARK   18  A    between atoms: N_49  and  CA_50 
REMARK   19  A    between atoms: CA_50  and  CB_51 
REMARK   20  A    between atoms: CA_50  and  C_58 
REMARK   21  A    between atoms: CB_51  and  CG_52 
REMARK   22  A    between atoms: CG_52  and  CD_53 
REMARK   23  A    between atoms: CD_53  and  NE_54 
REMARK       I    between atoms: C_58  and  N_60 
REMARK   24  A    between atoms: N_60  and  CA_61 
REMARK   25  A    between atoms: CA_61  and  C_66 
REMARK   26  A    between atoms: CA_61  and  CB_62 
REMARK   27  A    between atoms: CB_62  and  CG_63 
REMARK       I    between atoms: C_66  and  N_68 
REMARK   28  A    between atoms: N_68  and  CA_69 
REMARK   29  A    between atoms: CA_69  and  CB_70 
REMARK   30  A    between atoms: CA_69  and  C_77 
REMARK   31  A    between atoms: CB_70  and  CG_71 
REMARK       I    between atoms: C_77  and  N_79 
REMARK   32  A    between atoms: N_79  and  CA_80 
REMARK   33  A    between atoms: CA_80  and  CB_81 
REMARK   34  A    between atoms: CA_80  and  C_91 
REMARK   35  A    between atoms: CB_81  and  CG_82 
REMARK       I    between atoms: C_91  and  N_93 
REMARK   36  A    between atoms: N_93  and  CA_94 
REMARK   37  A    between atoms: CA_94  and  C_95 
REMARK       I    between atoms: C_95  and  N_97 
REMARK   38  A    between atoms: N_97  and  CA_98 
REMARK   39  A    between atoms: CA_98  and  C_101 
REMARK   40  A    between atoms: CA_98  and  CB_99 
REMARK       I    between atoms: C_101  and  N_103 
REMARK   41  A    between atoms: N_103  and  CA_104 
REMARK   42  A    between atoms: CA_104  and  C_105 
ROOT
ATOM      1  CA  ARG     6      -1.237 -17.951   8.009  1.00  0.00     0.186 C 
ENDROOT
BRANCH   1   2
ATOM      2  N   ARG     6      -0.575 -19.264   7.827  1.00  0.00    -0.229 NA
ATOM      3  C   TYR     5      -0.488 -20.167   8.813  1.00  0.00     0.275 C 
ATOM      4  O   TYR     5      -0.978 -19.975   9.926  1.00  0.00    -0.268 OA
BRANCH   3   5
ATOM      5  CA  TYR     5       0.158 -21.519   8.470  1.00  0.00     0.191 C 
BRANCH   5   6
ATOM      6  N   TYR     5       0.100 -21.853   7.023  1.00  0.00    -0.228 NA
ATOM      7  C   GLU     4      -0.895 -22.569   6.475  1.00  0.00     0.274 C 
ATOM      8  O   GLU     4      -1.902 -22.883   7.096  1.00  0.00    -0.268 OA
BRANCH   7   9
ATOM      9  CA  GLU     4      -0.867 -22.701   4.939  1.00  0.00     0.187 C 
BRANCH   9  10
ATOM     10  CB  GLU     4      -2.196 -23.294   4.442  1.00  0.00     0.045 C 
BRANCH  10  11
ATOM     11  CG  GLU     4      -3.037 -22.397   3.507  1.00  0.00     0.100 C 
BRANCH  11  12
ATOM     12  CD  GLU     4      -3.068 -22.861   2.051  1.00  0.00     0.185 C 
ATOM     13  OE1 GLU     4      -2.158 -23.645   1.674  1.00  0.00    -0.647 OA
ATOM     14  OE2 GLU     4      -3.653 -22.117   1.238  1.00  0.00    -0.647 OA
ENDBRANCH  11  12
ENDBRANCH  10  11
ENDBRANCH   9  10
BRANCH   9  15
ATOM     15  N   GLU     4       0.238 -23.545   4.446  1.00  0.00    -0.229 NA
ATOM     16  C   PRO     3       0.680 -24.693   4.948  1.00  0.00     0.272 C 
ATOM     17  O   PRO     3       0.002 -25.417   5.678  1.00  0.00    -0.269 OA
BRANCH  16  18
ATOM     18  CA  PRO     3       1.855 -25.324   4.198  1.00  0.00     0.165 C 
ATOM     19  N   PRO     3       2.971 -25.775   5.058  1.00  0.00    -0.312 N 
ATOM     20  CD  PRO     3       3.489 -27.075   4.562  1.00  0.00     0.105 C 
ATOM     21  C   ASP     2       3.515 -25.027   6.035  1.00  0.00     0.257 C 
ATOM     22  CG  PRO     3       2.770 -27.283   3.220  1.00  0.00     0.027 C 
ATOM     23  CB  PRO     3       1.439 -26.561   3.406  1.00  0.00     0.034 C 
ATOM     24  O   ASP     2       3.243 -23.821   6.126  1.00  0.00    -0.270 OA
BRANCH  21  25
ATOM     25  CA  ASP     2       4.736 -25.567   6.815  1.00  0.00     0.195 C 
BRANCH  25  26
ATOM     26  CB  ASP     2       4.433 -26.304   8.145  1.00  0.00     0.132 C 
BRANCH  26  27
ATOM     27  CG  ASP     2       4.842 -27.785   8.045  1.00  0.00     0.188 C 
ATOM     28  OD2 ASP     2       3.913 -28.587   7.775  1.00  0.00    -0.647 OA
ATOM     29  OD1 ASP     2       5.812 -28.151   8.755  1.00  0.00    -0.647 OA
ENDBRANCH  26  27
ENDBRANCH  25  26
BRANCH  25  30
ATOM     30  N   ASP     2       5.638 -24.487   7.247  1.00  0.00    -0.228 NA
ATOM     31  C   TYR     1       6.941 -24.563   7.389  1.00  0.00     0.289 C 
ATOM     32  O   TYR     1       7.689 -25.492   7.066  1.00  0.00    -0.268 OA
BRANCH  31  33
ATOM     33  CA  TYR     1       7.516 -23.319   8.061  1.00  0.00     0.385 C 
ATOM     34  N   TYR     1       8.851 -23.075   7.491  1.00  0.00     0.626 N 
BRANCH  33  35
ATOM     35  CB  TYR     1       6.548 -22.169   7.794  1.00  0.00     0.075 C 
BRANCH  35  36
ATOM     36  CG  TYR     1       6.282 -21.307   9.038  1.00  0.00    -0.019 A 
ATOM     37  CD2 TYR     1       6.792 -20.023   9.149  1.00  0.00    -0.002 A 
ATOM     38  CE2 TYR     1       6.426 -19.217  10.217  1.00  0.00     0.027 A 
ATOM     39  CZ  TYR     1       5.548 -19.718  11.177  1.00  0.00     0.131 A 
ATOM     40  CE1 TYR     1       5.076 -21.015  11.082  1.00  0.00     0.027 A 
ATOM     41  OH  TYR     1       5.033 -18.900  12.117  1.00  0.00    -0.190 OA
ATOM     42  CD1 TYR     1       5.441 -21.820  10.014  1.00  0.00    -0.002 A 
ENDBRANCH  35  36
ENDBRANCH  33  35
ENDBRANCH  31  33
ENDBRANCH  25  30
ENDBRANCH  21  25
ENDBRANCH  16  18
ENDBRANCH   9  15
ENDBRANCH   7   9
ENDBRANCH   5   6
BRANCH   5  43
ATOM     43  CB  TYR     5       1.613 -21.574   8.966  1.00  0.00     0.060 C 
BRANCH  43  44
ATOM     44  CG  TYR     5       2.458 -20.406   8.430  1.00  0.00    -0.020 A 
ATOM     45  CD2 TYR     5       2.540 -19.211   9.132  1.00  0.00    -0.002 A 
ATOM     46  CE2 TYR     5       3.312 -18.163   8.643  1.00  0.00     0.027 A 
ATOM     47  CZ  TYR     5       4.003 -18.310   7.450  1.00  0.00     0.131 A 
ATOM     48  CE1 TYR     5       3.941 -19.509   6.749  1.00  0.00     0.027 A 
ATOM     49  OH  TYR     5       4.641 -17.254   6.898  1.00  0.00    -0.190 OA
ATOM     50  CD1 TYR     5       3.159 -20.555   7.238  1.00  0.00    -0.002 A 
ENDBRANCH  43  44
ENDBRANCH   5  43
ENDBRANCH   3   5
ENDBRANCH   1   2
BRANCH   1  51
ATOM     51  CB  ARG     6      -0.784 -16.912   6.988  1.00  0.00     0.036 C 
BRANCH  51  52
ATOM     52  CG  ARG     6      -0.139 -15.674   7.615  1.00  0.00     0.029 C 
BRANCH  52  53
ATOM     53  CD  ARG     6       0.145 -15.914   9.095  1.00  0.00     0.145 C 
BRANCH  53  54
ATOM     54  NE  ARG     6      -0.141 -14.709   9.890  1.00  0.00    -0.083 NA
ATOM     55  CZ  ARG     6      -0.991 -14.643  10.932  1.00  0.00     0.782 C 
ATOM     56  NH2 ARG     6      -1.241 -13.477  11.532  1.00  0.00     0.063 N 
ATOM     57  NH1 ARG     6      -1.660 -15.724  11.321  1.00  0.00     0.063 N 
ENDBRANCH  53  54
ENDBRANCH  52  53
ENDBRANCH  51  52
ENDBRANCH   1  51
BRANCH   1  58
ATOM     58  C   ARG     6      -2.764 -18.042   7.895  1.00  0.00     0.274 C 
ATOM     59  N   ASN     7      -3.452 -17.275   8.736  1.00  0.00    -0.228 NA
ATOM     60  O   ARG     6      -3.260 -18.800   7.061  1.00  0.00    -0.268 OA
BRANCH  59  61
ATOM     61  CA  ASN     7      -4.924 -17.155   8.710  1.00  0.00     0.196 C 
BRANCH  61  62
ATOM     62  C   ASN     7      -5.383 -15.725   9.055  1.00  0.00     0.275 C 
ATOM     63  N   PHE     8      -4.808 -14.722   8.374  1.00  0.00    -0.228 NA
ATOM     64  O   ASN     7      -6.461 -15.606   9.604  1.00  0.00    -0.268 OA
BRANCH  63  65
ATOM     65  CA  PHE     8      -5.176 -13.291   8.501  1.00  0.00     0.191 C 
BRANCH  65  66
ATOM     66  CB  PHE     8      -4.276 -12.478   7.559  1.00  0.00     0.060 C 
BRANCH  66  67
ATOM     67  CG  PHE     8      -4.449 -10.952   7.674  1.00  0.00    -0.020 A 
ATOM     68  CD1 PHE     8      -4.935 -10.227   6.594  1.00  0.00    -0.004 A 
ATOM     69  CE1 PHE     8      -4.995  -8.835   6.663  1.00  0.00    -0.000 A 
ATOM     70  CZ  PHE     8      -4.583  -8.185   7.815  1.00  0.00    -0.000 A 
ATOM     71  CE2 PHE     8      -4.107  -8.910   8.903  1.00  0.00    -0.000 A 
ATOM     72  CD2 PHE     8      -4.048 -10.302   8.834  1.00  0.00    -0.004 A 
ENDBRANCH  66  67
ENDBRANCH  65  66
BRANCH  65  73
ATOM     73  C   PHE     8      -6.672 -12.978   8.273  1.00  0.00     0.275 C 
ATOM     74  N   TRP     9      -7.165 -13.281   7.071  1.00  0.00    -0.228 NA
ATOM     75  O   PHE     8      -7.297 -12.263   9.060  1.00  0.00    -0.268 OA
BRANCH  74  76
ATOM     76  CA  TRP     9      -8.609 -13.149   6.756  1.00  0.00     0.191 C 
BRANCH  76  77
ATOM     77  CB  TRP     9      -8.759 -12.705   5.292  1.00  0.00     0.062 C 
BRANCH  77  78
ATOM     78  CG  TRP     9      -8.876 -13.876   4.317  1.00  0.00     0.001 A 
ATOM     79  CD1 TRP     9      -7.865 -14.583   3.821  1.00  0.00     0.095 A 
ATOM     80  NE1 TRP     9      -8.288 -15.314   2.797  1.00  0.00    -0.244 NA
ATOM     81  CE2 TRP     9      -9.585 -15.114   2.617  1.00  0.00     0.081 A 
ATOM     82  CD2 TRP     9     -10.001 -14.189   3.561  1.00  0.00     0.015 A 
ATOM     83  CZ2 TRP     9     -10.485 -15.556   1.648  1.00  0.00     0.019 A 
ATOM     84  CE3 TRP     9     -11.294 -13.687   3.544  1.00  0.00     0.001 A 
ATOM     85  CZ3 TRP     9     -12.190 -14.117   2.570  1.00  0.00     0.000 A 
ATOM     86  CH2 TRP     9     -11.783 -15.067   1.635  1.00  0.00     0.002 A 
ENDBRANCH  77  78
ENDBRANCH  76  77
BRANCH  76  87
ATOM     87  C   TRP     9      -9.449 -14.411   7.058  1.00  0.00     0.275 C 
ATOM     88  O   TRP     9     -10.675 -14.361   7.082  1.00  0.00    -0.268 OA
ATOM     89  N   GLY    10      -8.772 -15.551   7.187  1.00  0.00    -0.226 NA
BRANCH  89  90
ATOM     90  CA  GLY    10      -9.403 -16.877   7.435  1.00  0.00     0.218 C 
BRANCH  90  91
ATOM     91  C   GLY    10      -9.350 -17.885   6.276  1.00  0.00     0.277 C 
ATOM     92  N   CYS    11      -8.915 -19.100   6.605  1.00  0.00    -0.228 NA
ATOM     93  O   GLY    10      -9.533 -17.518   5.121  1.00  0.00    -0.268 OA
BRANCH  92  94
ATOM     94  CA  CYS    11      -8.784 -20.266   5.702  1.00  0.00     0.198 C 
BRANCH  94  95
ATOM     95  C   CYS    11      -9.363 -21.498   6.424  1.00  0.00     0.275 C 
ATOM     96  O   CYS    11      -9.417 -22.568   5.828  1.00  0.00    -0.268 OA
ATOM     97  N   GLY    12      -9.952 -21.267   7.589  1.00  0.00    -0.225 NA
BRANCH  97  98
ATOM     98  CA  GLY    12     -10.570 -22.328   8.400  1.00  0.00     0.226 C 
BRANCH  98  99
ATOM     99  C   GLY    12      -9.650 -22.598   9.613  1.00  0.00     0.211 C 
ATOM    100  O1  GLY    12     -10.093 -22.265  10.742  1.00  0.00    -0.646 OA
ATOM    101  O2  GLY    12      -8.557 -23.154   9.400  1.00  0.00    -0.646 OA
ENDBRANCH  98  99
ENDBRANCH  97  98
ENDBRANCH  94  95
BRANCH  94 102
ATOM    102  CB  CYS    11      -7.310 -20.583   5.463  1.00  0.00     0.103 C 
ATOM    103  SG  CYS    11      -6.300 -20.907   6.960  1.00  0.00    -0.080 SA
ENDBRANCH  94 102
ENDBRANCH  92  94
ENDBRANCH  90  91
ENDBRANCH  89  90
ENDBRANCH  76  87
ENDBRANCH  74  76
ENDBRANCH  65  73
ENDBRANCH  63  65
ENDBRANCH  61  62
BRANCH  61 104
ATOM    104  CB  ASN     7      -5.583 -18.179   9.644  1.00  0.00     0.126 C 
BRANCH 104 105
ATOM    105  CG  ASN     7      -4.789 -18.490  10.926  1.00  0.00     0.276 C 
ATOM    106  ND2 ASN     7      -4.879 -17.602  11.890  1.00  0.00    -0.107 N 
ATOM    107  OD1 ASN     7      -3.979 -19.400  11.047  1.00  0.00    -0.269 OA
ENDBRANCH 104 105
ENDBRANCH  61 104
ENDBRANCH  59  61
ENDBRANCH   1  58
TORSDOF 42
ENDMDL
MODEL 8
REMARK VINA RESULT:      -4.8      6.635     18.311
REMARK WARNING: 32 MAX_TORS EXCEEDED!!!
REMARK  42 active torsions:
REMARK  status: ('A' for Active; 'I' for Inactive)
REMARK    1  A    between atoms: CA_2  and  CB_3 
REMARK    2  A    between atoms: CA_2  and  C_11 
REMARK    3  A    between atoms: CB_3  and  CG_4 
REMARK       I    between atoms: C_11  and  N_13 
REMARK    4  A    between atoms: N_13  and  CA_14 
REMARK    5  A    between atoms: CA_14  and  CB_15 
REMARK    6  A    between atoms: CA_14  and  C_19 
REMARK    7  A    between atoms: CB_15  and  CG_16 
REMARK       I    between atoms: C_19  and  N_21 
REMARK    8  A    between atoms: CA_22  and  C_26 
REMARK       I    between atoms: C_26  and  N_28 
REMARK    9  A    between atoms: N_28  and  CA_29 
REMARK   10  A    between atoms: CA_29  and  C_35 
REMARK   11  A    between atoms: CA_29  and  CB_30 
REMARK   12  A    between atoms: CB_30  and  CG_31 
REMARK   13  A    between atoms: CG_31  and  CD_32 
REMARK       I    between atoms: C_35  and  N_37 
REMARK   14  A    between atoms: N_37  and  CA_38 
REMARK   15  A    between atoms: CA_38  and  CB_39 
REMARK   16  A    between atoms: CA_38  and  C_47 
REMARK   17  A    between atoms: CB_39  and  CG_40 
REMARK       I    between atoms: C_47  and  N_49 
REMARK   18  A    between atoms: N_49  and  CA_50 
REMARK   19  A    between atoms: CA_50  and  CB_51 
REMARK   20  A    between atoms: CA_50  and  C_58 
REMARK   21  A    between atoms: CB_51  and  CG_52 
REMARK   22  A    between atoms: CG_52  and  CD_53 
REMARK   23  A    between atoms: CD_53  and  NE_54 
REMARK       I    between atoms: C_58  and  N_60 
REMARK   24  A    between atoms: N_60  and  CA_61 
REMARK   25  A    between atoms: CA_61  and  C_66 
REMARK   26  A    between atoms: CA_61  and  CB_62 
REMARK   27  A    between atoms: CB_62  and  CG_63 
REMARK       I    between atoms: C_66  and  N_68 
REMARK   28  A    between atoms: N_68  and  CA_69 
REMARK   29  A    between atoms: CA_69  and  CB_70 
REMARK   30  A    between atoms: CA_69  and  C_77 
REMARK   31  A    between atoms: CB_70  and  CG_71 
REMARK       I    between atoms: C_77  and  N_79 
REMARK   32  A    between atoms: N_79  and  CA_80 
REMARK   33  A    between atoms: CA_80  and  CB_81 
REMARK   34  A    between atoms: CA_80  and  C_91 
REMARK   35  A    between atoms: CB_81  and  CG_82 
REMARK       I    between atoms: C_91  and  N_93 
REMARK   36  A    between atoms: N_93  and  CA_94 
REMARK   37  A    between atoms: CA_94  and  C_95 
REMARK       I    between atoms: C_95  and  N_97 
REMARK   38  A    between atoms: N_97  and  CA_98 
REMARK   39  A    between atoms: CA_98  and  C_101 
REMARK   40  A    between atoms: CA_98  and  CB_99 
REMARK       I    between atoms: C_101  and  N_103 
REMARK   41  A    between atoms: N_103  and  CA_104 
REMARK   42  A    between atoms: CA_104  and  C_105 
ROOT
ATOM      1  CA  ARG     6       4.685 -22.677   8.169  1.00  0.00     0.186 C 
ENDROOT
BRANCH   1   2
ATOM      2  N   ARG     6       4.240 -21.378   7.612  1.00  0.00    -0.229 NA
ATOM      3  C   TYR     5       3.445 -20.540   8.291  1.00  0.00     0.275 C 
ATOM      4  O   TYR     5       3.055 -20.783   9.433  1.00  0.00    -0.268 OA
BRANCH   3   5
ATOM      5  CA  TYR     5       3.119 -19.192   7.628  1.00  0.00     0.191 C 
BRANCH   5   6
ATOM      6  N   TYR     5       1.836 -18.600   8.087  1.00  0.00    -0.228 NA
ATOM      7  C   GLU     4       1.398 -17.396   7.686  1.00  0.00     0.274 C 
ATOM      8  O   GLU     4       1.951 -16.752   6.803  1.00  0.00    -0.268 OA
BRANCH   7   9
ATOM      9  CA  GLU     4      -0.019 -17.001   8.151  1.00  0.00     0.187 C 
BRANCH   9  10
ATOM     10  CB  GLU     4      -1.062 -17.527   7.152  1.00  0.00     0.045 C 
BRANCH  10  11
ATOM     11  CG  GLU     4      -2.034 -18.603   7.683  1.00  0.00     0.100 C 
BRANCH  11  12
ATOM     12  CD  GLU     4      -3.444 -18.090   7.972  1.00  0.00     0.185 C 
ATOM     13  OE1 GLU     4      -4.340 -18.354   7.127  1.00  0.00    -0.647 OA
ATOM     14  OE2 GLU     4      -3.536 -17.093   8.716  1.00  0.00    -0.647 OA
ENDBRANCH  11  12
ENDBRANCH  10  11
ENDBRANCH   9  10
BRANCH   9  15
ATOM     15  N   GLU     4      -0.199 -15.543   8.297  1.00  0.00    -0.229 NA
ATOM     16  C   PRO     3      -0.689 -14.877   9.335  1.00  0.00     0.272 C 
ATOM     17  O   PRO     3      -0.724 -15.337  10.478  1.00  0.00    -0.269 OA
BRANCH  16  18
ATOM     18  CA  PRO     3      -0.745 -13.357   9.169  1.00  0.00     0.165 C 
ATOM     19  N   PRO     3      -2.109 -12.787   9.126  1.00  0.00    -0.312 N 
ATOM     20  CD  PRO     3      -2.144 -11.518   9.897  1.00  0.00     0.105 C 
ATOM     21  C   ASP     2      -3.105 -13.278   8.367  1.00  0.00     0.257 C 
ATOM     22  CG  PRO     3      -0.670 -11.235  10.229  1.00  0.00     0.027 C 
ATOM     23  CB  PRO     3      -0.043 -12.624  10.309  1.00  0.00     0.034 C 
ATOM     24  O   ASP     2      -2.867 -14.122   7.489  1.00  0.00    -0.270 OA
BRANCH  21  25
ATOM     25  CA  ASP     2      -4.468 -12.549   8.335  1.00  0.00     0.195 C 
BRANCH  25  26
ATOM     26  CB  ASP     2      -5.671 -13.310   8.949  1.00  0.00     0.132 C 
BRANCH  26  27
ATOM     27  CG  ASP     2      -5.959 -12.799  10.374  1.00  0.00     0.188 C 
ATOM     28  OD2 ASP     2      -6.949 -12.032  10.484  1.00  0.00    -0.647 OA
ATOM     29  OD1 ASP     2      -4.971 -12.678  11.140  1.00  0.00    -0.647 OA
ENDBRANCH  26  27
ENDBRANCH  25  26
BRANCH  25  30
ATOM     30  N   ASP     2      -4.924 -12.289   6.959  1.00  0.00    -0.228 NA
ATOM     31  C   TYR     1      -5.562 -11.224   6.532  1.00  0.00     0.289 C 
ATOM     32  O   TYR     1      -5.790 -10.177   7.146  1.00  0.00    -0.268 OA
BRANCH  31  33
ATOM     33  CA  TYR     1      -6.067 -11.396   5.103  1.00  0.00     0.385 C 
ATOM     34  N   TYR     1      -5.400 -12.576   4.527  1.00  0.00     0.626 N 
BRANCH  33  35
ATOM     35  CB  TYR     1      -7.584 -11.559   5.172  1.00  0.00     0.075 C 
BRANCH  35  36
ATOM     36  CG  TYR     1      -8.033 -13.028   5.136  1.00  0.00    -0.019 A 
ATOM     37  CD2 TYR     1      -8.168 -13.713   3.938  1.00  0.00    -0.002 A 
ATOM     38  CE2 TYR     1      -8.442 -15.072   3.938  1.00  0.00     0.027 A 
ATOM     39  CZ  TYR     1      -8.586 -15.736   5.156  1.00  0.00     0.131 A 
ATOM     40  CE1 TYR     1      -8.490 -15.039   6.347  1.00  0.00     0.027 A 
ATOM     41  OH  TYR     1      -8.665 -17.082   5.189  1.00  0.00    -0.190 OA
ATOM     42  CD1 TYR     1      -8.216 -13.680   6.346  1.00  0.00    -0.002 A 
ENDBRANCH  35  36
ENDBRANCH  33  35
ENDBRANCH  31  33
ENDBRANCH  25  30
ENDBRANCH  21  25
ENDBRANCH  16  18
ENDBRANCH   9  15
ENDBRANCH   7   9
ENDBRANCH   5   6
BRANCH   5  43
ATOM     43  CB  TYR     5       4.266 -18.188   7.832  1.00  0.00     0.060 C 
BRANCH  43  44
ATOM     44  CG  TYR     5       5.373 -18.345   6.776  1.00  0.00    -0.020 A 
ATOM     45  CD2 TYR     5       6.656 -18.727   7.148  1.00  0.00    -0.002 A 
ATOM     46  CE2 TYR     5       7.649 -18.873   6.184  1.00  0.00     0.027 A 
ATOM     47  CZ  TYR     5       7.360 -18.637   4.849  1.00  0.00     0.131 A 
ATOM     48  CE1 TYR     5       6.074 -18.271   4.466  1.00  0.00     0.027 A 
ATOM     49  OH  TYR     5       8.348 -18.640   3.928  1.00  0.00    -0.190 OA
ATOM     50  CD1 TYR     5       5.082 -18.117   5.435  1.00  0.00    -0.002 A 
ENDBRANCH  43  44
ENDBRANCH   5  43
ENDBRANCH   3   5
ENDBRANCH   1   2
BRANCH   1  51
ATOM     51  CB  ARG     6       5.364 -23.566   7.132  1.00  0.00     0.036 C 
BRANCH  51  52
ATOM     52  CG  ARG     6       4.412 -24.090   6.053  1.00  0.00     0.029 C 
BRANCH  52  53
ATOM     53  CD  ARG     6       4.348 -25.614   6.096  1.00  0.00     0.145 C 
BRANCH  53  54
ATOM     54  NE  ARG     6       5.093 -26.205   4.972  1.00  0.00    -0.083 NA
ATOM     55  CZ  ARG     6       6.246 -26.893   5.075  1.00  0.00     0.782 C 
ATOM     56  NH2 ARG     6       6.884 -27.315   3.981  1.00  0.00     0.063 N 
ATOM     57  NH1 ARG     6       6.809 -27.085   6.263  1.00  0.00     0.063 N 
ENDBRANCH  53  54
ENDBRANCH  52  53
ENDBRANCH  51  52
ENDBRANCH   1  51
BRANCH   1  58
ATOM     58  C   ARG     6       5.680 -22.510   9.324  1.00  0.00     0.274 C 
ATOM     59  N   ASN     7       6.735 -21.741   9.069  1.00  0.00    -0.228 NA
ATOM     60  O   ARG     6       5.462 -23.082  10.393  1.00  0.00    -0.268 OA
BRANCH  59  61
ATOM     61  CA  ASN     7       7.748 -21.386  10.085  1.00  0.00     0.196 C 
BRANCH  61  62
ATOM     62  C   ASN     7       7.801 -19.864  10.324  1.00  0.00     0.275 C 
ATOM     63  N   PHE     8       8.872 -19.212   9.847  1.00  0.00    -0.228 NA
ATOM     64  O   ASN     7       6.749 -19.304  10.563  1.00  0.00    -0.268 OA
BRANCH  63  65
ATOM     65  CA  PHE     8       9.063 -17.742   9.902  1.00  0.00     0.191 C 
BRANCH  65  66
ATOM     66  CB  PHE     8       9.495 -17.366  11.326  1.00  0.00     0.060 C 
BRANCH  66  67
ATOM     67  CG  PHE     8      10.597 -18.266  11.915  1.00  0.00    -0.020 A 
ATOM     68  CD1 PHE     8      11.918 -18.085  11.532  1.00  0.00    -0.004 A 
ATOM     69  CE1 PHE     8      12.900 -18.966  11.987  1.00  0.00    -0.000 A 
ATOM     70  CZ  PHE     8      12.552 -20.007  12.831  1.00  0.00    -0.000 A 
ATOM     71  CE2 PHE     8      11.230 -20.182  13.228  1.00  0.00    -0.000 A 
ATOM     72  CD2 PHE     8      10.248 -19.302  12.773  1.00  0.00    -0.004 A 
ENDBRANCH  66  67
ENDBRANCH  65  66
BRANCH  65  73
ATOM     73  C   PHE     8      10.030 -17.170   8.841  1.00  0.00     0.275 C 
ATOM     74  N   TRP     9      10.858 -18.041   8.261  1.00  0.00    -0.228 NA
ATOM     75  O   PHE     8      10.200 -15.953   8.729  1.00  0.00    -0.268 OA
BRANCH  74  76
ATOM     76  CA  TRP     9      11.751 -17.653   7.142  1.00  0.00     0.191 C 
BRANCH  76  77
ATOM     77  CB  TRP     9      13.205 -17.660   7.642  1.00  0.00     0.062 C 
BRANCH  77  78
ATOM     78  CG  TRP     9      13.702 -16.280   8.069  1.00  0.00     0.001 A 
ATOM     79  CD1 TRP     9      13.704 -15.800   9.309  1.00  0.00     0.095 A 
ATOM     80  NE1 TRP     9      13.919 -14.490   9.282  1.00  0.00    -0.244 NA
ATOM     81  CE2 TRP     9      14.080 -14.093   8.028  1.00  0.00     0.081 A 
ATOM     82  CD2 TRP     9      13.935 -15.206   7.215  1.00  0.00     0.015 A 
ATOM     83  CZ2 TRP     9      14.240 -12.836   7.447  1.00  0.00     0.019 A 
ATOM     84  CE3 TRP     9      13.932 -15.081   5.834  1.00  0.00     0.001 A 
ATOM     85  CZ3 TRP     9      14.078 -13.826   5.252  1.00  0.00     0.000 A 
ATOM     86  CH2 TRP     9      14.251 -12.708   6.066  1.00  0.00     0.002 A 
ENDBRANCH  77  78
ENDBRANCH  76  77
BRANCH  76  87
ATOM     87  C   TRP     9      11.584 -18.505   5.863  1.00  0.00     0.275 C 
ATOM     88  O   TRP     9      11.129 -19.643   5.920  1.00  0.00    -0.268 OA
ATOM     89  N   GLY    10      11.864 -17.898   4.711  1.00  0.00    -0.226 NA
BRANCH  89  90
ATOM     90  CA  GLY    10      11.724 -18.534   3.372  1.00  0.00     0.218 C 
BRANCH  90  91
ATOM     91  C   GLY    10      12.112 -17.669   2.162  1.00  0.00     0.277 C 
ATOM     92  N   CYS    11      12.831 -16.585   2.451  1.00  0.00    -0.228 NA
ATOM     93  O   GLY    10      11.632 -17.892   1.057  1.00  0.00    -0.268 OA
BRANCH  92  94
ATOM     94  CA  CYS    11      13.357 -15.593   1.487  1.00  0.00     0.198 C 
BRANCH  94  95
ATOM     95  C   CYS    11      14.897 -15.664   1.520  1.00  0.00     0.275 C 
ATOM     96  O   CYS    11      15.437 -16.661   1.987  1.00  0.00    -0.268 OA
ATOM     97  N   GLY    12      15.538 -14.545   1.217  1.00  0.00    -0.225 NA
BRANCH  97  98
ATOM     98  CA  GLY    12      17.005 -14.437   1.216  1.00  0.00     0.226 C 
BRANCH  98  99
ATOM     99  C   GLY    12      17.397 -13.249   2.125  1.00  0.00     0.211 C 
ATOM    100  O1  GLY    12      18.429 -12.607   1.802  1.00  0.00    -0.646 OA
ATOM    101  O2  GLY    12      16.652 -12.985   3.088  1.00  0.00    -0.646 OA
ENDBRANCH  98  99
ENDBRANCH  97  98
ENDBRANCH  94  95
BRANCH  94 102
ATOM    102  CB  CYS    11      13.001 -14.179   1.940  1.00  0.00     0.103 C 
ATOM    103  SG  CYS    11      11.306 -13.605   1.536  1.00  0.00    -0.080 SA
ENDBRANCH  94 102
ENDBRANCH  92  94
ENDBRANCH  90  91
ENDBRANCH  89  90
ENDBRANCH  76  87
ENDBRANCH  74  76
ENDBRANCH  65  73
ENDBRANCH  63  65
ENDBRANCH  61  62
BRANCH  61 104
ATOM    104  CB  ASN     7       9.132 -21.927   9.705  1.00  0.00     0.126 C 
BRANCH 104 105
ATOM    105  CG  ASN     7       9.197 -23.452   9.503  1.00  0.00     0.276 C 
ATOM    106  ND2 ASN     7       9.843 -24.128  10.426  1.00  0.00    -0.107 N 
ATOM    107  OD1 ASN     7       8.837 -24.044   8.494  1.00  0.00    -0.269 OA
ENDBRANCH 104 105
ENDBRANCH  61 104
ENDBRANCH  59  61
ENDBRANCH   1  58
TORSDOF 42
ENDMDL
MODEL 9
REMARK VINA RESULT:      -4.8     14.408     23.332
REMARK WARNING: 32 MAX_TORS EXCEEDED!!!
REMARK  42 active torsions:
REMARK  status: ('A' for Active; 'I' for Inactive)
REMARK    1  A    between atoms: CA_2  and  CB_3 
REMARK    2  A    between atoms: CA_2  and  C_11 
REMARK    3  A    between atoms: CB_3  and  CG_4 
REMARK       I    between atoms: C_11  and  N_13 
REMARK    4  A    between atoms: N_13  and  CA_14 
REMARK    5  A    between atoms: CA_14  and  CB_15 
REMARK    6  A    between atoms: CA_14  and  C_19 
REMARK    7  A    between atoms: CB_15  and  CG_16 
REMARK       I    between atoms: C_19  and  N_21 
REMARK    8  A    between atoms: CA_22  and  C_26 
REMARK       I    between atoms: C_26  and  N_28 
REMARK    9  A    between atoms: N_28  and  CA_29 
REMARK   10  A    between atoms: CA_29  and  C_35 
REMARK   11  A    between atoms: CA_29  and  CB_30 
REMARK   12  A    between atoms: CB_30  and  CG_31 
REMARK   13  A    between atoms: CG_31  and  CD_32 
REMARK       I    between atoms: C_35  and  N_37 
REMARK   14  A    between atoms: N_37  and  CA_38 
REMARK   15  A    between atoms: CA_38  and  CB_39 
REMARK   16  A    between atoms: CA_38  and  C_47 
REMARK   17  A    between atoms: CB_39  and  CG_40 
REMARK       I    between atoms: C_47  and  N_49 
REMARK   18  A    between atoms: N_49  and  CA_50 
REMARK   19  A    between atoms: CA_50  and  CB_51 
REMARK   20  A    between atoms: CA_50  and  C_58 
REMARK   21  A    between atoms: CB_51  and  CG_52 
REMARK   22  A    between atoms: CG_52  and  CD_53 
REMARK   23  A    between atoms: CD_53  and  NE_54 
REMARK       I    between atoms: C_58  and  N_60 
REMARK   24  A    between atoms: N_60  and  CA_61 
REMARK   25  A    between atoms: CA_61  and  C_66 
REMARK   26  A    between atoms: CA_61  and  CB_62 
REMARK   27  A    between atoms: CB_62  and  CG_63 
REMARK       I    between atoms: C_66  and  N_68 
REMARK   28  A    between atoms: N_68  and  CA_69 
REMARK   29  A    between atoms: CA_69  and  CB_70 
REMARK   30  A    between atoms: CA_69  and  C_77 
REMARK   31  A    between atoms: CB_70  and  CG_71 
REMARK       I    between atoms: C_77  and  N_79 
REMARK   32  A    between atoms: N_79  and  CA_80 
REMARK   33  A    between atoms: CA_80  and  CB_81 
REMARK   34  A    between atoms: CA_80  and  C_91 
REMARK   35  A    between atoms: CB_81  and  CG_82 
REMARK       I    between atoms: C_91  and  N_93 
REMARK   36  A    between atoms: N_93  and  CA_94 
REMARK   37  A    between atoms: CA_94  and  C_95 
REMARK       I    between atoms: C_95  and  N_97 
REMARK   38  A    between atoms: N_97  and  CA_98 
REMARK   39  A    between atoms: CA_98  and  C_101 
REMARK   40  A    between atoms: CA_98  and  CB_99 
REMARK       I    between atoms: C_101  and  N_103 
REMARK   41  A    between atoms: N_103  and  CA_104 
REMARK   42  A    between atoms: CA_104  and  C_105 
ROOT
ATOM      1  CA  ARG     6      -4.331   2.061   8.713  1.00  0.00     0.186 C 
ENDROOT
BRANCH   1   2
ATOM      2  N   ARG     6      -3.786   3.381   8.319  1.00  0.00    -0.229 NA
ATOM      3  C   TYR     5      -2.578   3.520   7.758  1.00  0.00     0.275 C 
ATOM      4  O   TYR     5      -1.854   2.556   7.505  1.00  0.00    -0.268 OA
BRANCH   3   5
ATOM      5  CA  TYR     5      -2.163   4.937   7.329  1.00  0.00     0.191 C 
BRANCH   5   6
ATOM      6  N   TYR     5      -3.286   5.745   6.787  1.00  0.00    -0.228 NA
ATOM      7  C   GLU     4      -4.154   6.411   7.566  1.00  0.00     0.274 C 
ATOM      8  O   GLU     4      -4.007   6.519   8.777  1.00  0.00    -0.268 OA
BRANCH   7   9
ATOM      9  CA  GLU     4      -5.169   7.311   6.833  1.00  0.00     0.187 C 
BRANCH   9  10
ATOM     10  CB  GLU     4      -4.788   8.788   7.021  1.00  0.00     0.045 C 
BRANCH  10  11
ATOM     11  CG  GLU     4      -5.425   9.509   8.229  1.00  0.00     0.100 C 
BRANCH  11  12
ATOM     12  CD  GLU     4      -4.415  10.132   9.193  1.00  0.00     0.185 C 
ATOM     13  OE1 GLU     4      -3.318  10.518   8.712  1.00  0.00    -0.647 OA
ATOM     14  OE2 GLU     4      -4.511   9.805  10.394  1.00  0.00    -0.647 OA
ENDBRANCH  11  12
ENDBRANCH  10  11
ENDBRANCH   9  10
BRANCH   9  15
ATOM     15  N   GLU     4      -6.558   7.120   7.295  1.00  0.00    -0.229 NA
ATOM     16  C   PRO     3      -7.681   7.488   6.691  1.00  0.00     0.272 C 
ATOM     17  O   PRO     3      -7.757   7.713   5.482  1.00  0.00    -0.269 OA
BRANCH  16  18
ATOM     18  CA  PRO     3      -8.969   7.142   7.441  1.00  0.00     0.165 C 
ATOM     19  N   PRO     3      -9.117   5.715   7.798  1.00  0.00    -0.312 N 
ATOM     20  CD  PRO     3      -9.690   5.599   9.163  1.00  0.00     0.105 C 
ATOM     21  C   ASP     2      -8.906   4.700   6.940  1.00  0.00     0.257 C 
ATOM     22  CG  PRO     3     -10.088   7.037   9.531  1.00  0.00     0.027 C 
ATOM     23  CB  PRO     3      -9.090   7.898   8.762  1.00  0.00     0.034 C 
ATOM     24  O   ASP     2      -8.780   4.922   5.726  1.00  0.00    -0.270 OA
BRANCH  21  25
ATOM     25  CA  ASP     2      -9.174   3.249   7.398  1.00  0.00     0.195 C 
BRANCH  25  26
ATOM     26  CB  ASP     2      -8.024   2.544   8.162  1.00  0.00     0.132 C 
BRANCH  26  27
ATOM     27  CG  ASP     2      -8.499   2.096   9.557  1.00  0.00     0.188 C 
ATOM     28  OD2 ASP     2      -7.711   1.342  10.182  1.00  0.00    -0.647 OA
ATOM     29  OD1 ASP     2      -9.740   1.998   9.725  1.00  0.00    -0.647 OA
ENDBRANCH  26  27
ENDBRANCH  25  26
BRANCH  25  30
ATOM     30  N   ASP     2      -9.403   2.342   6.260  1.00  0.00    -0.228 NA
ATOM     31  C   TYR     1     -10.494   1.658   6.009  1.00  0.00     0.289 C 
ATOM     32  O   TYR     1     -11.586   1.730   6.582  1.00  0.00    -0.268 OA
BRANCH  31  33
ATOM     33  CA  TYR     1     -10.295   0.662   4.871  1.00  0.00     0.385 C 
ATOM     34  N   TYR     1     -10.156   1.427   3.621  1.00  0.00     0.626 N 
BRANCH  33  35
ATOM     35  CB  TYR     1      -9.048  -0.158   5.197  1.00  0.00     0.075 C 
BRANCH  35  36
ATOM     36  CG  TYR     1      -9.277  -1.179   6.321  1.00  0.00    -0.019 A 
ATOM     37  CD2 TYR     1     -10.055  -2.310   6.123  1.00  0.00    -0.002 A 
ATOM     38  CE2 TYR     1     -10.135  -3.283   7.108  1.00  0.00     0.027 A 
ATOM     39  CZ  TYR     1      -9.431  -3.105   8.298  1.00  0.00     0.131 A 
ATOM     40  CE1 TYR     1      -8.690  -1.955   8.506  1.00  0.00     0.027 A 
ATOM     41  OH  TYR     1      -9.340  -4.113   9.189  1.00  0.00    -0.190 OA
ATOM     42  CD1 TYR     1      -8.610  -0.982   7.521  1.00  0.00    -0.002 A 
ENDBRANCH  35  36
ENDBRANCH  33  35
ENDBRANCH  31  33
ENDBRANCH  25  30
ENDBRANCH  21  25
ENDBRANCH  16  18
ENDBRANCH   9  15
ENDBRANCH   7   9
ENDBRANCH   5   6
BRANCH   5  43
ATOM     43  CB  TYR     5      -1.486   5.686   8.490  1.00  0.00     0.060 C 
BRANCH  43  44
ATOM     44  CG  TYR     5      -0.508   6.765   7.997  1.00  0.00    -0.020 A 
ATOM     45  CD2 TYR     5      -0.877   8.104   7.991  1.00  0.00    -0.002 A 
ATOM     46  CE2 TYR     5       0.018   9.075   7.550  1.00  0.00     0.027 A 
ATOM     47  CZ  TYR     5       1.282   8.706   7.115  1.00  0.00     0.131 A 
ATOM     48  CE1 TYR     5       1.665   7.369   7.135  1.00  0.00     0.027 A 
ATOM     49  OH  TYR     5       2.103   9.621   6.557  1.00  0.00    -0.190 OA
ATOM     50  CD1 TYR     5       0.763   6.398   7.569  1.00  0.00    -0.002 A 
ENDBRANCH  43  44
ENDBRANCH   5  43
ENDBRANCH   3   5
ENDBRANCH   1   2
BRANCH   1  51
ATOM     51  CB  ARG     6      -4.002   0.960   7.710  1.00  0.00     0.036 C 
BRANCH  51  52
ATOM     52  CG  ARG     6      -5.237   0.252   7.147  1.00  0.00     0.029 C 
BRANCH  52  53
ATOM     53  CD  ARG     6      -5.408   0.579   5.666  1.00  0.00     0.145 C 
BRANCH  53  54
ATOM     54  NE  ARG     6      -5.942   1.938   5.484  1.00  0.00    -0.083 NA
ATOM     55  CZ  ARG     6      -5.259   2.985   4.984  1.00  0.00     0.782 C 
ATOM     56  NH2 ARG     6      -5.814   4.198   4.939  1.00  0.00     0.063 N 
ATOM     57  NH1 ARG     6      -3.993   2.843   4.608  1.00  0.00     0.063 N 
ENDBRANCH  53  54
ENDBRANCH  52  53
ENDBRANCH  51  52
ENDBRANCH   1  51
BRANCH   1  58
ATOM     58  C   ARG     6      -3.802   1.589  10.073  1.00  0.00     0.274 C 
ATOM     59  N   ASN     7      -2.979   0.544  10.040  1.00  0.00    -0.228 NA
ATOM     60  O   ARG     6      -4.157   2.179  11.094  1.00  0.00    -0.268 OA
BRANCH  59  61
ATOM     61  CA  ASN     7      -2.294   0.010  11.235  1.00  0.00     0.196 C 
BRANCH  61  62
ATOM     62  C   ASN     7      -0.763   0.010  11.058  1.00  0.00     0.275 C 
ATOM     63  N   PHE     8      -0.252   0.895  10.189  1.00  0.00    -0.228 NA
ATOM     64  O   ASN     7      -0.101  -0.482  11.952  1.00  0.00    -0.268 OA
BRANCH  63  65
ATOM     65  CA  PHE     8       1.196   1.106   9.945  1.00  0.00     0.191 C 
BRANCH  65  66
ATOM     66  CB  PHE     8       1.678   0.037   8.954  1.00  0.00     0.060 C 
BRANCH  66  67
ATOM     67  CG  PHE     8       2.683  -0.970   9.542  1.00  0.00    -0.020 A 
ATOM     68  CD1 PHE     8       3.876  -0.518  10.089  1.00  0.00    -0.004 A 
ATOM     69  CE1 PHE     8       4.830  -1.437  10.529  1.00  0.00    -0.000 A 
ATOM     70  CZ  PHE     8       4.574  -2.795  10.431  1.00  0.00    -0.000 A 
ATOM     71  CE2 PHE     8       3.373  -3.249   9.895  1.00  0.00    -0.000 A 
ATOM     72  CD2 PHE     8       2.419  -2.331   9.456  1.00  0.00    -0.004 A 
ENDBRANCH  66  67
ENDBRANCH  65  66
BRANCH  65  73
ATOM     73  C   PHE     8       1.580   2.529   9.482  1.00  0.00     0.275 C 
ATOM     74  N   TRP     9       2.878   2.835   9.514  1.00  0.00    -0.228 NA
ATOM     75  O   PHE     8       0.720   3.402   9.338  1.00  0.00    -0.268 OA
BRANCH  74  76
ATOM     76  CA  TRP     9       3.399   4.118   8.983  1.00  0.00     0.191 C 
BRANCH  76  77
ATOM     77  CB  TRP     9       4.081   4.888  10.126  1.00  0.00     0.062 C 
BRANCH  77  78
ATOM     78  CG  TRP     9       3.259   6.074  10.627  1.00  0.00     0.001 A 
ATOM     79  CD1 TRP     9       2.049   6.010  11.175  1.00  0.00     0.095 A 
ATOM     80  NE1 TRP     9       1.513   7.223  11.220  1.00  0.00    -0.244 NA
ATOM     81  CE2 TRP     9       2.367   8.104  10.722  1.00  0.00     0.081 A 
ATOM     82  CD2 TRP     9       3.496   7.410  10.317  1.00  0.00     0.015 A 
ATOM     83  CZ2 TRP     9       2.273   9.471  10.460  1.00  0.00     0.019 A 
ATOM     84  CE3 TRP     9       4.522   8.054   9.642  1.00  0.00     0.001 A 
ATOM     85  CZ3 TRP     9       4.424   9.414   9.367  1.00  0.00     0.000 A 
ATOM     86  CH2 TRP     9       3.303  10.121   9.797  1.00  0.00     0.002 A 
ENDBRANCH  77  78
ENDBRANCH  76  77
BRANCH  76  87
ATOM     87  C   TRP     9       4.329   3.975   7.757  1.00  0.00     0.275 C 
ATOM     88  O   TRP     9       4.796   4.964   7.201  1.00  0.00    -0.268 OA
ATOM     89  N   GLY    10       4.665   2.732   7.416  1.00  0.00    -0.226 NA
BRANCH  89  90
ATOM     90  CA  GLY    10       5.583   2.389   6.295  1.00  0.00     0.218 C 
BRANCH  90  91
ATOM     91  C   GLY    10       7.013   1.981   6.685  1.00  0.00     0.277 C 
ATOM     92  N   CYS    11       7.127   0.766   7.218  1.00  0.00    -0.228 NA
ATOM     93  O   GLY    10       7.925   2.800   6.656  1.00  0.00    -0.268 OA
BRANCH  92  94
ATOM     94  CA  CYS    11       8.378   0.110   7.661  1.00  0.00     0.198 C 
BRANCH  94  95
ATOM     95  C   CYS    11       9.029  -0.557   6.434  1.00  0.00     0.275 C 
ATOM     96  O   CYS    11       8.534  -1.583   5.981  1.00  0.00    -0.268 OA
ATOM     97  N   GLY    12      10.209  -0.078   6.068  1.00  0.00    -0.225 NA
BRANCH  97  98
ATOM     98  CA  GLY    12      10.973  -0.610   4.929  1.00  0.00     0.226 C 
BRANCH  98  99
ATOM     99  C   GLY    12      11.300   0.567   3.981  1.00  0.00     0.211 C 
ATOM    100  O1  GLY    12      12.517   0.823   3.800  1.00  0.00    -0.646 OA
ATOM    101  O2  GLY    12      10.347   1.155   3.437  1.00  0.00    -0.646 OA
ENDBRANCH  98  99
ENDBRANCH  97  98
ENDBRANCH  94  95
BRANCH  94 102
ATOM    102  CB  CYS    11       8.062  -1.027   8.629  1.00  0.00     0.103 C 
ATOM    103  SG  CYS    11       9.488  -1.731   9.543  1.00  0.00    -0.080 SA
ENDBRANCH  94 102
ENDBRANCH  92  94
ENDBRANCH  90  91
ENDBRANCH  89  90
ENDBRANCH  76  87
ENDBRANCH  74  76
ENDBRANCH  65  73
ENDBRANCH  63  65
ENDBRANCH  61  62
BRANCH  61 104
ATOM    104  CB  ASN     7      -2.802  -1.394  11.587  1.00  0.00     0.126 C 
BRANCH 104 105
ATOM    105  CG  ASN     7      -4.172  -1.430  12.289  1.00  0.00     0.276 C 
ATOM    106  ND2 ASN     7      -5.108  -2.131  11.691  1.00  0.00    -0.107 N 
ATOM    107  OD1 ASN     7      -4.486  -0.742  13.252  1.00  0.00    -0.269 OA
ENDBRANCH 104 105
ENDBRANCH  61 104
ENDBRANCH  59  61
ENDBRANCH   1  58
TORSDOF 42
ENDMDL
