MODEL 1
REMARK VINA RESULT:      -5.9      0.000      0.000
REMARK WARNING: 32 MAX_TORS EXCEEDED!!!
REMARK  42 active torsions:
REMARK  status: ('A' for Active; 'I' for Inactive)
REMARK    1  A    between atoms: CA_2  and  CB_3 
REMARK    2  A    between atoms: CA_2  and  C_11 
REMARK    3  A    between atoms: CB_3  and  CG_4 
REMARK       I    between atoms: C_11  and  N_13 
REMARK    4  A    between atoms: N_13  and  CA_14 
REMARK    5  A    between atoms: CA_14  and  CB_15 
REMARK    6  A    between atoms: CA_14  and  C_19 
REMARK    7  A    between atoms: CB_15  and  CG_16 
REMARK       I    between atoms: C_19  and  N_21 
REMARK    8  A    between atoms: CA_22  and  C_26 
REMARK       I    between atoms: C_26  and  N_28 
REMARK    9  A    between atoms: N_28  and  CA_29 
REMARK   10  A    between atoms: CA_29  and  C_35 
REMARK   11  A    between atoms: CA_29  and  CB_30 
REMARK   12  A    between atoms: CB_30  and  CG_31 
REMARK   13  A    between atoms: CG_31  and  CD_32 
REMARK       I    between atoms: C_35  and  N_37 
REMARK   14  A    between atoms: N_37  and  CA_38 
REMARK   15  A    between atoms: CA_38  and  CB_39 
REMARK   16  A    between atoms: CA_38  and  C_47 
REMARK   17  A    between atoms: CB_39  and  CG_40 
REMARK       I    between atoms: C_47  and  N_49 
REMARK   18  A    between atoms: N_49  and  CA_50 
REMARK   19  A    between atoms: CA_50  and  CB_51 
REMARK   20  A    between atoms: CA_50  and  C_58 
REMARK   21  A    between atoms: CB_51  and  CG_52 
REMARK   22  A    between atoms: CG_52  and  CD_53 
REMARK   23  A    between atoms: CD_53  and  NE_54 
REMARK       I    between atoms: C_58  and  N_60 
REMARK   24  A    between atoms: N_60  and  CA_61 
REMARK   25  A    between atoms: CA_61  and  C_66 
REMARK   26  A    between atoms: CA_61  and  CB_62 
REMARK   27  A    between atoms: CB_62  and  CG_63 
REMARK       I    between atoms: C_66  and  N_68 
REMARK   28  A    between atoms: N_68  and  CA_69 
REMARK   29  A    between atoms: CA_69  and  CB_70 
REMARK   30  A    between atoms: CA_69  and  C_77 
REMARK   31  A    between atoms: CB_70  and  CG_71 
REMARK       I    between atoms: C_77  and  N_79 
REMARK   32  A    between atoms: N_79  and  CA_80 
REMARK   33  A    between atoms: CA_80  and  CB_81 
REMARK   34  A    between atoms: CA_80  and  C_91 
REMARK   35  A    between atoms: CB_81  and  CG_82 
REMARK       I    between atoms: C_91  and  N_93 
REMARK   36  A    between atoms: N_93  and  CA_94 
REMARK   37  A    between atoms: CA_94  and  C_95 
REMARK       I    between atoms: C_95  and  N_97 
REMARK   38  A    between atoms: N_97  and  CA_98 
REMARK   39  A    between atoms: CA_98  and  C_101 
REMARK   40  A    between atoms: CA_98  and  CB_99 
REMARK       I    between atoms: C_101  and  N_103 
REMARK   41  A    between atoms: N_103  and  CA_104 
REMARK   42  A    between atoms: CA_104  and  C_105 
ROOT
ATOM      1  CA  ARG     6      -1.002   3.807   8.626  1.00  0.00     0.186 C 
ENDROOT
BRANCH   1   2
ATOM      2  N   ARG     6       0.037   4.652   7.991  1.00  0.00    -0.229 NA
ATOM      3  C   TYR     5       0.383   5.851   8.477  1.00  0.00     0.275 C 
ATOM      4  O   TYR     5      -0.120   6.317   9.500  1.00  0.00    -0.268 OA
BRANCH   3   5
ATOM      5  CA  TYR     5       1.528   6.591   7.766  1.00  0.00     0.191 C 
BRANCH   5   6
ATOM      6  N   TYR     5       1.664   8.011   8.183  1.00  0.00    -0.228 NA
ATOM      7  C   GLU     4       1.824   9.020   7.310  1.00  0.00     0.274 C 
ATOM      8  O   GLU     4       1.729   8.866   6.099  1.00  0.00    -0.268 OA
BRANCH   7   9
ATOM      9  CA  GLU     4       1.806  10.441   7.907  1.00  0.00     0.187 C 
BRANCH   9  10
ATOM     10  CB  GLU     4       2.599  10.463   9.224  1.00  0.00     0.045 C 
BRANCH  10  11
ATOM     11  CG  GLU     4       4.028  11.045   9.151  1.00  0.00     0.100 C 
BRANCH  11  12
ATOM     12  CD  GLU     4       4.114  12.541   9.452  1.00  0.00     0.185 C 
ATOM     13  OE1 GLU     4       5.016  12.921  10.244  1.00  0.00    -0.647 OA
ATOM     14  OE2 GLU     4       3.068  13.204   9.303  1.00  0.00    -0.647 OA
ENDBRANCH  11  12
ENDBRANCH  10  11
ENDBRANCH   9  10
BRANCH   9  15
ATOM     15  N   GLU     4       0.445  10.946   8.169  1.00  0.00    -0.229 NA
ATOM     16  C   PRO     3      -0.409  10.555   9.108  1.00  0.00     0.272 C 
ATOM     17  O   PRO     3      -0.062   9.972  10.136  1.00  0.00    -0.269 OA
BRANCH  16  18
ATOM     18  CA  PRO     3      -1.754  11.283   9.112  1.00  0.00     0.165 C 
ATOM     19  N   PRO     3      -2.935  10.408   8.954  1.00  0.00    -0.312 N 
ATOM     20  CD  PRO     3      -4.022  10.869   9.855  1.00  0.00     0.105 C 
ATOM     21  C   ASP     2      -3.039   9.448   8.017  1.00  0.00     0.257 C 
ATOM     22  CG  PRO     3      -3.513  12.207  10.411  1.00  0.00     0.027 C 
ATOM     23  CB  PRO     3      -1.995  12.046  10.413  1.00  0.00     0.034 C 
ATOM     24  O   ASP     2      -2.220   9.389   7.088  1.00  0.00    -0.270 OA
BRANCH  21  25
ATOM     25  CA  ASP     2      -4.356   8.650   7.888  1.00  0.00     0.195 C 
BRANCH  25  26
ATOM     26  CB  ASP     2      -4.647   7.615   9.005  1.00  0.00     0.132 C 
BRANCH  26  27
ATOM     27  CG  ASP     2      -6.160   7.530   9.280  1.00  0.00     0.188 C 
ATOM     28  OD2 ASP     2      -6.784   8.620   9.212  1.00  0.00    -0.647 OA
ATOM     29  OD1 ASP     2      -6.542   6.626  10.063  1.00  0.00    -0.647 OA
ENDBRANCH  26  27
ENDBRANCH  25  26
BRANCH  25  30
ATOM     30  N   ASP     2      -4.385   7.821   6.671  1.00  0.00    -0.228 NA
ATOM     31  C   TYR     1      -4.919   8.142   5.516  1.00  0.00     0.289 C 
ATOM     32  O   TYR     1      -5.380   9.234   5.167  1.00  0.00    -0.268 OA
BRANCH  31  33
ATOM     33  CA  TYR     1      -4.953   6.958   4.554  1.00  0.00     0.385 C 
ATOM     34  N   TYR     1      -4.241   7.352   3.328  1.00  0.00     0.626 N 
BRANCH  33  35
ATOM     35  CB  TYR     1      -4.291   5.778   5.261  1.00  0.00     0.075 C 
BRANCH  35  36
ATOM     36  CG  TYR     1      -5.023   4.448   5.025  1.00  0.00    -0.019 A 
ATOM     37  CD2 TYR     1      -4.335   3.246   4.960  1.00  0.00    -0.002 A 
ATOM     38  CE2 TYR     1      -5.030   2.048   4.882  1.00  0.00     0.027 A 
ATOM     39  CZ  TYR     1      -6.424   2.070   4.864  1.00  0.00     0.131 A 
ATOM     40  CE1 TYR     1      -7.103   3.275   4.888  1.00  0.00     0.027 A 
ATOM     41  OH  TYR     1      -7.122   0.923   4.978  1.00  0.00    -0.190 OA
ATOM     42  CD1 TYR     1      -6.408   4.473   4.966  1.00  0.00    -0.002 A 
ENDBRANCH  35  36
ENDBRANCH  33  35
ENDBRANCH  31  33
ENDBRANCH  25  30
ENDBRANCH  21  25
ENDBRANCH  16  18
ENDBRANCH   9  15
ENDBRANCH   7   9
ENDBRANCH   5   6
BRANCH   5  43
ATOM     43  CB  TYR     5       2.863   5.854   7.961  1.00  0.00     0.060 C 
BRANCH  43  44
ATOM     44  CG  TYR     5       3.611   6.324   9.220  1.00  0.00    -0.020 A 
ATOM     45  CD2 TYR     5       3.310   5.784  10.464  1.00  0.00    -0.002 A 
ATOM     46  CE2 TYR     5       3.997   6.210  11.597  1.00  0.00     0.027 A 
ATOM     47  CZ  TYR     5       4.985   7.176  11.485  1.00  0.00     0.131 A 
ATOM     48  CE1 TYR     5       5.305   7.709  10.242  1.00  0.00     0.027 A 
ATOM     49  OH  TYR     5       5.558   7.695  12.594  1.00  0.00    -0.190 OA
ATOM     50  CD1 TYR     5       4.609   7.286   9.109  1.00  0.00    -0.002 A 
ENDBRANCH  43  44
ENDBRANCH   5  43
ENDBRANCH   3   5
ENDBRANCH   1   2
BRANCH   1  51
ATOM     51  CB  ARG     6      -1.827   3.020   7.613  1.00  0.00     0.036 C 
BRANCH  51  52
ATOM     52  CG  ARG     6      -2.824   2.050   8.252  1.00  0.00     0.029 C 
BRANCH  52  53
ATOM     53  CD  ARG     6      -4.097   2.787   8.657  1.00  0.00     0.145 C 
BRANCH  53  54
ATOM     54  NE  ARG     6      -4.410   2.558  10.078  1.00  0.00    -0.083 NA
ATOM     55  CZ  ARG     6      -4.226   3.447  11.072  1.00  0.00     0.782 C 
ATOM     56  NH2 ARG     6      -4.466   3.107  12.339  1.00  0.00     0.063 N 
ATOM     57  NH1 ARG     6      -3.721   4.648  10.812  1.00  0.00     0.063 N 
ENDBRANCH  53  54
ENDBRANCH  52  53
ENDBRANCH  51  52
ENDBRANCH   1  51
BRANCH   1  58
ATOM     58  C   ARG     6      -0.409   2.781   9.600  1.00  0.00     0.274 C 
ATOM     59  N   ASN     7       0.491   1.949   9.085  1.00  0.00    -0.228 NA
ATOM     60  O   ARG     6      -0.789   2.777  10.772  1.00  0.00    -0.268 OA
BRANCH  59  61
ATOM     61  CA  ASN     7       1.241   0.961   9.889  1.00  0.00     0.196 C 
BRANCH  61  62
ATOM     62  C   ASN     7       2.728   0.916   9.489  1.00  0.00     0.275 C 
ATOM     63  N   PHE     8       3.600   1.501  10.325  1.00  0.00    -0.228 NA
ATOM     64  O   ASN     7       3.063   0.060   8.694  1.00  0.00    -0.268 OA
BRANCH  63  65
ATOM     65  CA  PHE     8       5.074   1.488  10.159  1.00  0.00     0.191 C 
BRANCH  65  66
ATOM     66  CB  PHE     8       5.603   2.898  10.457  1.00  0.00     0.060 C 
BRANCH  66  67
ATOM     67  CG  PHE     8       6.127   3.655   9.223  1.00  0.00    -0.020 A 
ATOM     68  CD1 PHE     8       7.117   4.617   9.369  1.00  0.00    -0.004 A 
ATOM     69  CE1 PHE     8       7.518   5.373   8.268  1.00  0.00    -0.000 A 
ATOM     70  CZ  PHE     8       6.937   5.149   7.031  1.00  0.00    -0.000 A 
ATOM     71  CE2 PHE     8       5.954   4.177   6.879  1.00  0.00    -0.000 A 
ATOM     72  CD2 PHE     8       5.553   3.420   7.980  1.00  0.00    -0.004 A 
ENDBRANCH  66  67
ENDBRANCH  65  66
BRANCH  65  73
ATOM     73  C   PHE     8       5.814   0.413  10.985  1.00  0.00     0.275 C 
ATOM     74  N   TRP     9       6.097  -0.729  10.356  1.00  0.00    -0.228 NA
ATOM     75  O   PHE     8       5.906   0.508  12.212  1.00  0.00    -0.268 OA
BRANCH  74  76
ATOM     76  CA  TRP     9       6.911  -1.796  10.989  1.00  0.00     0.191 C 
BRANCH  76  77
ATOM     77  CB  TRP     9       5.967  -2.865  11.564  1.00  0.00     0.062 C 
BRANCH  77  78
ATOM     78  CG  TRP     9       4.698  -3.056  10.735  1.00  0.00     0.001 A 
ATOM     79  CD1 TRP     9       3.499  -2.554  11.015  1.00  0.00     0.095 A 
ATOM     80  NE1 TRP     9       2.578  -3.149  10.267  1.00  0.00    -0.244 NA
ATOM     81  CE2 TRP     9       3.158  -4.035   9.471  1.00  0.00     0.081 A 
ATOM     82  CD2 TRP     9       4.516  -4.019   9.747  1.00  0.00     0.015 A 
ATOM     83  CZ2 TRP     9       2.653  -4.972   8.571  1.00  0.00     0.019 A 
ATOM     84  CE3 TRP     9       5.373  -4.932   9.151  1.00  0.00     0.001 A 
ATOM     85  CZ3 TRP     9       4.869  -5.877   8.263  1.00  0.00     0.000 A 
ATOM     86  CH2 TRP     9       3.509  -5.879   7.963  1.00  0.00     0.002 A 
ENDBRANCH  77  78
ENDBRANCH  76  77
BRANCH  76  87
ATOM     87  C   TRP     9       7.981  -2.420  10.065  1.00  0.00     0.275 C 
ATOM     88  O   TRP     9       8.500  -3.498  10.339  1.00  0.00    -0.268 OA
ATOM     89  N   GLY    10       8.222  -1.774   8.925  1.00  0.00    -0.226 NA
BRANCH  89  90
ATOM     90  CA  GLY    10       9.183  -2.237   7.886  1.00  0.00     0.218 C 
BRANCH  90  91
ATOM     91  C   GLY    10       8.970  -1.688   6.466  1.00  0.00     0.277 C 
ATOM     92  N   CYS    11       9.742  -0.652   6.141  1.00  0.00    -0.228 NA
ATOM     93  O   GLY    10       8.034  -2.083   5.779  1.00  0.00    -0.268 OA
BRANCH  92  94
ATOM     94  CA  CYS    11       9.765   0.056   4.841  1.00  0.00     0.198 C 
BRANCH  94  95
ATOM     95  C   CYS    11      11.235   0.191   4.397  1.00  0.00     0.275 C 
ATOM     96  O   CYS    11      11.480   0.469   3.228  1.00  0.00    -0.268 OA
ATOM     97  N   GLY    12      12.146  -0.201   5.274  1.00  0.00    -0.225 NA
BRANCH  97  98
ATOM     98  CA  GLY    12      13.592  -0.154   5.003  1.00  0.00     0.226 C 
BRANCH  98  99
ATOM     99  C   GLY    12      14.070  -1.596   4.712  1.00  0.00     0.211 C 
ATOM    100  O1  GLY    12      13.471  -2.215   3.796  1.00  0.00    -0.646 OA
ATOM    101  O2  GLY    12      15.031  -2.033   5.372  1.00  0.00    -0.646 OA
ENDBRANCH  98  99
ENDBRANCH  97  98
ENDBRANCH  94  95
BRANCH  94 102
ATOM    102  CB  CYS    11       9.254   1.485   5.012  1.00  0.00     0.103 C 
ATOM    103  SG  CYS    11       9.165   2.111   6.734  1.00  0.00    -0.080 SA
ENDBRANCH  94 102
ENDBRANCH  92  94
ENDBRANCH  90  91
ENDBRANCH  89  90
ENDBRANCH  76  87
ENDBRANCH  74  76
ENDBRANCH  65  73
ENDBRANCH  63  65
ENDBRANCH  61  62
BRANCH  61 104
ATOM    104  CB  ASN     7       0.607  -0.432   9.790  1.00  0.00     0.126 C 
BRANCH 104 105
ATOM    105  CG  ASN     7      -0.048  -0.939  11.088  1.00  0.00     0.276 C 
ATOM    106  ND2 ASN     7       0.527  -0.566  12.208  1.00  0.00    -0.107 N 
ATOM    107  OD1 ASN     7      -0.946  -1.770  11.144  1.00  0.00    -0.269 OA
ENDBRANCH 104 105
ENDBRANCH  61 104
ENDBRANCH  59  61
ENDBRANCH   1  58
TORSDOF 42
ENDMDL
MODEL 2
REMARK VINA RESULT:      -5.8     15.741     24.835
REMARK WARNING: 32 MAX_TORS EXCEEDED!!!
REMARK  42 active torsions:
REMARK  status: ('A' for Active; 'I' for Inactive)
REMARK    1  A    between atoms: CA_2  and  CB_3 
REMARK    2  A    between atoms: CA_2  and  C_11 
REMARK    3  A    between atoms: CB_3  and  CG_4 
REMARK       I    between atoms: C_11  and  N_13 
REMARK    4  A    between atoms: N_13  and  CA_14 
REMARK    5  A    between atoms: CA_14  and  CB_15 
REMARK    6  A    between atoms: CA_14  and  C_19 
REMARK    7  A    between atoms: CB_15  and  CG_16 
REMARK       I    between atoms: C_19  and  N_21 
REMARK    8  A    between atoms: CA_22  and  C_26 
REMARK       I    between atoms: C_26  and  N_28 
REMARK    9  A    between atoms: N_28  and  CA_29 
REMARK   10  A    between atoms: CA_29  and  C_35 
REMARK   11  A    between atoms: CA_29  and  CB_30 
REMARK   12  A    between atoms: CB_30  and  CG_31 
REMARK   13  A    between atoms: CG_31  and  CD_32 
REMARK       I    between atoms: C_35  and  N_37 
REMARK   14  A    between atoms: N_37  and  CA_38 
REMARK   15  A    between atoms: CA_38  and  CB_39 
REMARK   16  A    between atoms: CA_38  and  C_47 
REMARK   17  A    between atoms: CB_39  and  CG_40 
REMARK       I    between atoms: C_47  and  N_49 
REMARK   18  A    between atoms: N_49  and  CA_50 
REMARK   19  A    between atoms: CA_50  and  CB_51 
REMARK   20  A    between atoms: CA_50  and  C_58 
REMARK   21  A    between atoms: CB_51  and  CG_52 
REMARK   22  A    between atoms: CG_52  and  CD_53 
REMARK   23  A    between atoms: CD_53  and  NE_54 
REMARK       I    between atoms: C_58  and  N_60 
REMARK   24  A    between atoms: N_60  and  CA_61 
REMARK   25  A    between atoms: CA_61  and  C_66 
REMARK   26  A    between atoms: CA_61  and  CB_62 
REMARK   27  A    between atoms: CB_62  and  CG_63 
REMARK       I    between atoms: C_66  and  N_68 
REMARK   28  A    between atoms: N_68  and  CA_69 
REMARK   29  A    between atoms: CA_69  and  CB_70 
REMARK   30  A    between atoms: CA_69  and  C_77 
REMARK   31  A    between atoms: CB_70  and  CG_71 
REMARK       I    between atoms: C_77  and  N_79 
REMARK   32  A    between atoms: N_79  and  CA_80 
REMARK   33  A    between atoms: CA_80  and  CB_81 
REMARK   34  A    between atoms: CA_80  and  C_91 
REMARK   35  A    between atoms: CB_81  and  CG_82 
REMARK       I    between atoms: C_91  and  N_93 
REMARK   36  A    between atoms: N_93  and  CA_94 
REMARK   37  A    between atoms: CA_94  and  C_95 
REMARK       I    between atoms: C_95  and  N_97 
REMARK   38  A    between atoms: N_97  and  CA_98 
REMARK   39  A    between atoms: CA_98  and  C_101 
REMARK   40  A    between atoms: CA_98  and  CB_99 
REMARK       I    between atoms: C_101  and  N_103 
REMARK   41  A    between atoms: N_103  and  CA_104 
REMARK   42  A    between atoms: CA_104  and  C_105 
ROOT
ATOM      1  CA  ARG     6      -5.689 -17.252   9.196  1.00  0.00     0.186 C 
ENDROOT
BRANCH   1   2
ATOM      2  N   ARG     6      -4.313 -16.780   8.916  1.00  0.00    -0.229 NA
ATOM      3  C   TYR     5      -3.556 -17.308   7.944  1.00  0.00     0.275 C 
ATOM      4  O   TYR     5      -3.967 -18.200   7.201  1.00  0.00    -0.268 OA
BRANCH   3   5
ATOM      5  CA  TYR     5      -2.175 -16.676   7.710  1.00  0.00     0.191 C 
BRANCH   5   6
ATOM      6  N   TYR     5      -1.285 -17.496   6.848  1.00  0.00    -0.228 NA
ATOM      7  C   GLU     4      -0.578 -18.541   7.308  1.00  0.00     0.274 C 
ATOM      8  O   GLU     4      -0.717 -18.986   8.441  1.00  0.00    -0.268 OA
BRANCH   7   9
ATOM      9  CA  GLU     4       0.181 -19.365   6.248  1.00  0.00     0.187 C 
BRANCH   9  10
ATOM     10  CB  GLU     4      -0.747 -20.440   5.660  1.00  0.00     0.045 C 
BRANCH  10  11
ATOM     11  CG  GLU     4      -0.165 -21.868   5.565  1.00  0.00     0.100 C 
BRANCH  11  12
ATOM     12  CD  GLU     4      -0.781 -22.865   6.545  1.00  0.00     0.185 C 
ATOM     13  OE1 GLU     4      -0.886 -22.506   7.747  1.00  0.00    -0.647 OA
ATOM     14  OE2 GLU     4      -0.704 -24.072   6.239  1.00  0.00    -0.647 OA
ENDBRANCH  11  12
ENDBRANCH  10  11
ENDBRANCH   9  10
BRANCH   9  15
ATOM     15  N   GLU     4       1.390 -20.024   6.778  1.00  0.00    -0.229 NA
ATOM     16  C   PRO     3       2.486 -19.456   7.268  1.00  0.00     0.272 C 
ATOM     17  O   PRO     3       2.515 -18.303   7.699  1.00  0.00    -0.269 OA
BRANCH  16  18
ATOM     18  CA  PRO     3       3.570 -20.428   7.738  1.00  0.00     0.165 C 
ATOM     19  N   PRO     3       4.917 -19.834   7.882  1.00  0.00    -0.312 N 
ATOM     20  CD  PRO     3       5.569 -20.369   9.105  1.00  0.00     0.105 C 
ATOM     21  C   ASP     2       5.498 -19.054   6.952  1.00  0.00     0.257 C 
ATOM     22  CG  PRO     3       4.630 -21.489   9.577  1.00  0.00     0.027 C 
ATOM     23  CB  PRO     3       3.253 -21.032   9.103  1.00  0.00     0.034 C 
ATOM     24  O   ASP     2       5.010 -18.966   5.816  1.00  0.00    -0.270 OA
BRANCH  21  25
ATOM     25  CA  ASP     2       6.945 -18.558   7.173  1.00  0.00     0.195 C 
BRANCH  25  26
ATOM     26  CB  ASP     2       7.142 -17.022   7.252  1.00  0.00     0.132 C 
BRANCH  26  27
ATOM     27  CG  ASP     2       8.087 -16.660   8.413  1.00  0.00     0.188 C 
ATOM     28  OD2 ASP     2       8.916 -15.745   8.171  1.00  0.00    -0.647 OA
ATOM     29  OD1 ASP     2       8.374 -17.583   9.215  1.00  0.00    -0.647 OA
ENDBRANCH  26  27
ENDBRANCH  25  26
BRANCH  25  30
ATOM     30  N   ASP     2       7.835 -18.936   6.062  1.00  0.00    -0.228 NA
ATOM     31  C   TYR     1       8.503 -20.059   5.940  1.00  0.00     0.289 C 
ATOM     32  O   TYR     1       8.425 -21.072   6.643  1.00  0.00    -0.268 OA
BRANCH  31  33
ATOM     33  CA  TYR     1       9.489 -20.014   4.776  1.00  0.00     0.385 C 
ATOM     34  N   TYR     1       8.725 -19.728   3.550  1.00  0.00     0.626 N 
BRANCH  33  35
ATOM     35  CB  TYR     1      10.516 -18.929   5.091  1.00  0.00     0.075 C 
BRANCH  35  36
ATOM     36  CG  TYR     1      11.355 -19.240   6.340  1.00  0.00    -0.019 A 
ATOM     37  CD2 TYR     1      11.313 -18.424   7.460  1.00  0.00    -0.002 A 
ATOM     38  CE2 TYR     1      11.973 -18.799   8.621  1.00  0.00     0.027 A 
ATOM     39  CZ  TYR     1      12.681 -20.000   8.643  1.00  0.00     0.131 A 
ATOM     40  CE1 TYR     1      12.752 -20.789   7.509  1.00  0.00     0.027 A 
ATOM     41  OH  TYR     1      13.171 -20.476   9.805  1.00  0.00    -0.190 OA
ATOM     42  CD1 TYR     1      12.092 -20.415   6.349  1.00  0.00    -0.002 A 
ENDBRANCH  35  36
ENDBRANCH  33  35
ENDBRANCH  31  33
ENDBRANCH  25  30
ENDBRANCH  21  25
ENDBRANCH  16  18
ENDBRANCH   9  15
ENDBRANCH   7   9
ENDBRANCH   5   6
BRANCH   5  43
ATOM     43  CB  TYR     5      -2.311 -15.258   7.129  1.00  0.00     0.060 C 
BRANCH  43  44
ATOM     44  CG  TYR     5      -1.900 -14.172   8.138  1.00  0.00    -0.020 A 
ATOM     45  CD2 TYR     5      -0.614 -14.142   8.660  1.00  0.00    -0.002 A 
ATOM     46  CE2 TYR     5      -0.249 -13.151   9.567  1.00  0.00     0.027 A 
ATOM     47  CZ  TYR     5      -1.172 -12.191   9.952  1.00  0.00     0.131 A 
ATOM     48  CE1 TYR     5      -2.456 -12.203   9.420  1.00  0.00     0.027 A 
ATOM     49  OH  TYR     5      -0.871 -11.312  10.933  1.00  0.00    -0.190 OA
ATOM     50  CD1 TYR     5      -2.822 -13.203   8.518  1.00  0.00    -0.002 A 
ENDBRANCH  43  44
ENDBRANCH   5  43
ENDBRANCH   3   5
ENDBRANCH   1   2
BRANCH   1  51
ATOM     51  CB  ARG     6      -5.734 -18.364  10.239  1.00  0.00     0.036 C 
BRANCH  51  52
ATOM     52  CG  ARG     6      -5.922 -19.761   9.642  1.00  0.00     0.029 C 
BRANCH  52  53
ATOM     53  CD  ARG     6      -6.929 -19.718   8.496  1.00  0.00     0.145 C 
BRANCH  53  54
ATOM     54  NE  ARG     6      -6.691 -20.815   7.544  1.00  0.00    -0.083 NA
ATOM     55  CZ  ARG     6      -6.510 -20.673   6.217  1.00  0.00     0.782 C 
ATOM     56  NH2 ARG     6      -6.386 -21.744   5.431  1.00  0.00     0.063 N 
ATOM     57  NH1 ARG     6      -6.539 -19.466   5.662  1.00  0.00     0.063 N 
ENDBRANCH  53  54
ENDBRANCH  52  53
ENDBRANCH  51  52
ENDBRANCH   1  51
BRANCH   1  58
ATOM     58  C   ARG     6      -6.601 -16.131   9.709  1.00  0.00     0.274 C 
ATOM     59  N   ASN     7      -6.501 -14.968   9.071  1.00  0.00    -0.228 NA
ATOM     60  O   ARG     6      -7.353 -16.355  10.659  1.00  0.00    -0.268 OA
BRANCH  59  61
ATOM     61  CA  ASN     7      -7.365 -13.805   9.358  1.00  0.00     0.196 C 
BRANCH  61  62
ATOM     62  C   ASN     7      -7.756 -13.057   8.068  1.00  0.00     0.275 C 
ATOM     63  N   PHE     8      -6.962 -13.230   7.001  1.00  0.00    -0.228 NA
ATOM     64  O   ASN     7      -8.911 -12.691   7.968  1.00  0.00    -0.268 OA
BRANCH  63  65
ATOM     65  CA  PHE     8      -7.218 -12.667   5.653  1.00  0.00     0.191 C 
BRANCH  65  66
ATOM     66  CB  PHE     8      -5.937 -11.971   5.172  1.00  0.00     0.060 C 
BRANCH  66  67
ATOM     67  CG  PHE     8      -5.627 -10.643   5.889  1.00  0.00    -0.020 A 
ATOM     68  CD1 PHE     8      -6.156  -9.455   5.406  1.00  0.00    -0.004 A 
ATOM     69  CE1 PHE     8      -5.793  -8.243   5.994  1.00  0.00    -0.000 A 
ATOM     70  CZ  PHE     8      -4.917  -8.235   7.067  1.00  0.00    -0.000 A 
ATOM     71  CE2 PHE     8      -4.396  -9.426   7.562  1.00  0.00    -0.000 A 
ATOM     72  CD2 PHE     8      -4.759 -10.638   6.974  1.00  0.00    -0.004 A 
ENDBRANCH  66  67
ENDBRANCH  65  66
BRANCH  65  73
ATOM     73  C   PHE     8      -7.742 -13.680   4.611  1.00  0.00     0.275 C 
ATOM     74  N   TRP     9      -9.001 -14.094   4.767  1.00  0.00    -0.228 NA
ATOM     75  O   PHE     8      -6.969 -14.258   3.843  1.00  0.00    -0.268 OA
BRANCH  74  76
ATOM     76  CA  TRP     9      -9.671 -14.968   3.773  1.00  0.00     0.191 C 
BRANCH  76  77
ATOM     77  CB  TRP     9     -10.363 -16.124   4.515  1.00  0.00     0.062 C 
BRANCH  77  78
ATOM     78  CG  TRP     9      -9.989 -16.198   5.995  1.00  0.00     0.001 A 
ATOM     79  CD1 TRP     9      -9.166 -17.084   6.549  1.00  0.00     0.095 A 
ATOM     80  NE1 TRP     9      -9.295 -17.051   7.869  1.00  0.00    -0.244 NA
ATOM     81  CE2 TRP     9     -10.188 -16.133   8.204  1.00  0.00     0.081 A 
ATOM     82  CD2 TRP     9     -10.670 -15.569   7.033  1.00  0.00     0.015 A 
ATOM     83  CZ2 TRP     9     -10.752 -15.761   9.425  1.00  0.00     0.019 A 
ATOM     84  CE3 TRP     9     -11.712 -14.655   7.060  1.00  0.00     0.001 A 
ATOM     85  CZ3 TRP     9     -12.284 -14.293   8.275  1.00  0.00     0.000 A 
ATOM     86  CH2 TRP     9     -11.785 -14.837   9.457  1.00  0.00     0.002 A 
ENDBRANCH  77  78
ENDBRANCH  76  77
BRANCH  76  87
ATOM     87  C   TRP     9     -10.648 -14.233   2.827  1.00  0.00     0.275 C 
ATOM     88  O   TRP     9     -10.547 -14.343   1.609  1.00  0.00    -0.268 OA
ATOM     89  N   GLY    10     -11.645 -13.570   3.411  1.00  0.00    -0.226 NA
BRANCH  89  90
ATOM     90  CA  GLY    10     -12.709 -12.836   2.673  1.00  0.00     0.218 C 
BRANCH  90  91
ATOM     91  C   GLY    10     -12.811 -11.326   2.943  1.00  0.00     0.277 C 
ATOM     92  N   CYS    11     -12.091 -10.890   3.976  1.00  0.00    -0.228 NA
ATOM     93  O   GLY    10     -13.634 -10.640   2.348  1.00  0.00    -0.268 OA
BRANCH  92  94
ATOM     94  CA  CYS    11     -11.983  -9.491   4.447  1.00  0.00     0.198 C 
BRANCH  94  95
ATOM     95  C   CYS    11     -10.506  -9.064   4.343  1.00  0.00     0.275 C 
ATOM     96  O   CYS    11      -9.678  -9.601   5.071  1.00  0.00    -0.268 OA
ATOM     97  N   GLY    12     -10.260  -7.992   3.604  1.00  0.00    -0.225 NA
BRANCH  97  98
ATOM     98  CA  GLY    12      -8.909  -7.443   3.413  1.00  0.00     0.226 C 
BRANCH  98  99
ATOM     99  C   GLY    12      -8.978  -5.915   3.645  1.00  0.00     0.211 C 
ATOM    100  O1  GLY    12     -10.111  -5.434   3.897  1.00  0.00    -0.646 OA
ATOM    101  O2  GLY    12      -7.912  -5.274   3.603  1.00  0.00    -0.646 OA
ENDBRANCH  98  99
ENDBRANCH  97  98
ENDBRANCH  94  95
BRANCH  94 102
ATOM    102  CB  CYS    11     -12.333  -9.407   5.931  1.00  0.00     0.103 C 
ATOM    103  SG  CYS    11     -13.148 -10.882   6.653  1.00  0.00    -0.080 SA
ENDBRANCH  94 102
ENDBRANCH  92  94
ENDBRANCH  90  91
ENDBRANCH  89  90
ENDBRANCH  76  87
ENDBRANCH  74  76
ENDBRANCH  65  73
ENDBRANCH  63  65
ENDBRANCH  61  62
BRANCH  61 104
ATOM    104  CB  ASN     7      -6.702 -12.852  10.360  1.00  0.00     0.126 C 
BRANCH 104 105
ATOM    105  CG  ASN     7      -7.270 -12.918  11.790  1.00  0.00     0.276 C 
ATOM    106  ND2 ASN     7      -6.486 -13.453  12.698  1.00  0.00    -0.107 N 
ATOM    107  OD1 ASN     7      -8.427 -12.660  12.099  1.00  0.00    -0.269 OA
ENDBRANCH 104 105
ENDBRANCH  61 104
ENDBRANCH  59  61
ENDBRANCH   1  58
TORSDOF 42
ENDMDL
MODEL 3
REMARK VINA RESULT:      -5.6     15.455     24.282
REMARK WARNING: 32 MAX_TORS EXCEEDED!!!
REMARK  42 active torsions:
REMARK  status: ('A' for Active; 'I' for Inactive)
REMARK    1  A    between atoms: CA_2  and  CB_3 
REMARK    2  A    between atoms: CA_2  and  C_11 
REMARK    3  A    between atoms: CB_3  and  CG_4 
REMARK       I    between atoms: C_11  and  N_13 
REMARK    4  A    between atoms: N_13  and  CA_14 
REMARK    5  A    between atoms: CA_14  and  CB_15 
REMARK    6  A    between atoms: CA_14  and  C_19 
REMARK    7  A    between atoms: CB_15  and  CG_16 
REMARK       I    between atoms: C_19  and  N_21 
REMARK    8  A    between atoms: CA_22  and  C_26 
REMARK       I    between atoms: C_26  and  N_28 
REMARK    9  A    between atoms: N_28  and  CA_29 
REMARK   10  A    between atoms: CA_29  and  C_35 
REMARK   11  A    between atoms: CA_29  and  CB_30 
REMARK   12  A    between atoms: CB_30  and  CG_31 
REMARK   13  A    between atoms: CG_31  and  CD_32 
REMARK       I    between atoms: C_35  and  N_37 
REMARK   14  A    between atoms: N_37  and  CA_38 
REMARK   15  A    between atoms: CA_38  and  CB_39 
REMARK   16  A    between atoms: CA_38  and  C_47 
REMARK   17  A    between atoms: CB_39  and  CG_40 
REMARK       I    between atoms: C_47  and  N_49 
REMARK   18  A    between atoms: N_49  and  CA_50 
REMARK   19  A    between atoms: CA_50  and  CB_51 
REMARK   20  A    between atoms: CA_50  and  C_58 
REMARK   21  A    between atoms: CB_51  and  CG_52 
REMARK   22  A    between atoms: CG_52  and  CD_53 
REMARK   23  A    between atoms: CD_53  and  NE_54 
REMARK       I    between atoms: C_58  and  N_60 
REMARK   24  A    between atoms: N_60  and  CA_61 
REMARK   25  A    between atoms: CA_61  and  C_66 
REMARK   26  A    between atoms: CA_61  and  CB_62 
REMARK   27  A    between atoms: CB_62  and  CG_63 
REMARK       I    between atoms: C_66  and  N_68 
REMARK   28  A    between atoms: N_68  and  CA_69 
REMARK   29  A    between atoms: CA_69  and  CB_70 
REMARK   30  A    between atoms: CA_69  and  C_77 
REMARK   31  A    between atoms: CB_70  and  CG_71 
REMARK       I    between atoms: C_77  and  N_79 
REMARK   32  A    between atoms: N_79  and  CA_80 
REMARK   33  A    between atoms: CA_80  and  CB_81 
REMARK   34  A    between atoms: CA_80  and  C_91 
REMARK   35  A    between atoms: CB_81  and  CG_82 
REMARK       I    between atoms: C_91  and  N_93 
REMARK   36  A    between atoms: N_93  and  CA_94 
REMARK   37  A    between atoms: CA_94  and  C_95 
REMARK       I    between atoms: C_95  and  N_97 
REMARK   38  A    between atoms: N_97  and  CA_98 
REMARK   39  A    between atoms: CA_98  and  C_101 
REMARK   40  A    between atoms: CA_98  and  CB_99 
REMARK       I    between atoms: C_101  and  N_103 
REMARK   41  A    between atoms: N_103  and  CA_104 
REMARK   42  A    between atoms: CA_104  and  C_105 
ROOT
ATOM      1  CA  ARG     6      -3.549 -18.143   7.531  1.00  0.00     0.186 C 
ENDROOT
BRANCH   1   2
ATOM      2  N   ARG     6      -2.462 -17.401   8.211  1.00  0.00    -0.229 NA
ATOM      3  C   TYR     5      -1.280 -17.165   7.627  1.00  0.00     0.275 C 
ATOM      4  O   TYR     5      -1.030 -17.525   6.476  1.00  0.00    -0.268 OA
BRANCH   3   5
ATOM      5  CA  TYR     5      -0.266 -16.320   8.414  1.00  0.00     0.191 C 
BRANCH   5   6
ATOM      6  N   TYR     5       1.149 -16.632   8.086  1.00  0.00    -0.228 NA
ATOM      7  C   GLU     4       1.772 -17.744   8.509  1.00  0.00     0.274 C 
ATOM      8  O   GLU     4       1.184 -18.654   9.080  1.00  0.00    -0.268 OA
BRANCH   7   9
ATOM      9  CA  GLU     4       3.194 -17.975   7.957  1.00  0.00     0.187 C 
BRANCH   9  10
ATOM     10  CB  GLU     4       3.341 -17.288   6.590  1.00  0.00     0.045 C 
BRANCH  10  11
ATOM     11  CG  GLU     4       4.716 -17.424   5.901  1.00  0.00     0.100 C 
BRANCH  11  12
ATOM     12  CD  GLU     4       5.908 -17.132   6.812  1.00  0.00     0.185 C 
ATOM     13  OE1 GLU     4       5.982 -15.981   7.315  1.00  0.00    -0.647 OA
ATOM     14  OE2 GLU     4       6.931 -17.824   6.636  1.00  0.00    -0.647 OA
ENDBRANCH  11  12
ENDBRANCH  10  11
ENDBRANCH   9  10
BRANCH   9  15
ATOM     15  N   GLU     4       3.535 -19.403   7.805  1.00  0.00    -0.229 NA
ATOM     16  C   PRO     3       4.340 -20.139   8.562  1.00  0.00     0.272 C 
ATOM     17  O   PRO     3       4.637 -19.842   9.721  1.00  0.00    -0.269 OA
BRANCH  16  18
ATOM     18  CA  PRO     3       4.486 -21.600   8.133  1.00  0.00     0.165 C 
ATOM     19  N   PRO     3       3.211 -22.297   7.860  1.00  0.00    -0.312 N 
ATOM     20  CD  PRO     3       3.362 -23.164   6.663  1.00  0.00     0.105 C 
ATOM     21  C   ASP     2       2.143 -22.257   8.677  1.00  0.00     0.257 C 
ATOM     22  CG  PRO     3       4.866 -23.123   6.353  1.00  0.00     0.027 C 
ATOM     23  CB  PRO     3       5.303 -21.748   6.852  1.00  0.00     0.034 C 
ATOM     24  O   ASP     2       2.248 -21.797   9.824  1.00  0.00    -0.270 OA
BRANCH  21  25
ATOM     25  CA  ASP     2       0.890 -23.095   8.333  1.00  0.00     0.195 C 
BRANCH  25  26
ATOM     26  CB  ASP     2       1.045 -24.636   8.425  1.00  0.00     0.132 C 
BRANCH  26  27
ATOM     27  CG  ASP     2       1.122 -25.082   9.897  1.00  0.00     0.188 C 
ATOM     28  OD2 ASP     2       2.262 -25.427  10.299  1.00  0.00    -0.647 OA
ATOM     29  OD1 ASP     2       0.089 -25.609  10.381  1.00  0.00    -0.647 OA
ENDBRANCH  26  27
ENDBRANCH  25  26
BRANCH  25  30
ATOM     30  N   ASP     2       0.460 -22.902   6.938  1.00  0.00    -0.228 NA
ATOM     31  C   TYR     1      -0.135 -21.843   6.440  1.00  0.00     0.289 C 
ATOM     32  O   TYR     1      -0.333 -20.753   6.988  1.00  0.00    -0.268 OA
BRANCH  31  33
ATOM     33  CA  TYR     1      -0.627 -22.081   5.016  1.00  0.00     0.385 C 
ATOM     34  N   TYR     1       0.462 -22.725   4.264  1.00  0.00     0.626 N 
BRANCH  33  35
ATOM     35  CB  TYR     1      -1.874 -22.957   5.106  1.00  0.00     0.075 C 
BRANCH  35  36
ATOM     36  CG  TYR     1      -2.947 -22.585   4.071  1.00  0.00    -0.019 A 
ATOM     37  CD2 TYR     1      -2.855 -23.004   2.753  1.00  0.00    -0.002 A 
ATOM     38  CE2 TYR     1      -3.901 -22.770   1.872  1.00  0.00     0.027 A 
ATOM     39  CZ  TYR     1      -5.038 -22.104   2.329  1.00  0.00     0.131 A 
ATOM     40  CE1 TYR     1      -5.105 -21.653   3.634  1.00  0.00     0.027 A 
ATOM     41  OH  TYR     1      -6.138 -22.030   1.552  1.00  0.00    -0.190 OA
ATOM     42  CD1 TYR     1      -4.060 -21.887   4.515  1.00  0.00    -0.002 A 
ENDBRANCH  35  36
ENDBRANCH  33  35
ENDBRANCH  31  33
ENDBRANCH  25  30
ENDBRANCH  21  25
ENDBRANCH  16  18
ENDBRANCH   9  15
ENDBRANCH   7   9
ENDBRANCH   5   6
BRANCH   5  43
ATOM     43  CB  TYR     5      -0.533 -14.818   8.218  1.00  0.00     0.060 C 
BRANCH  43  44
ATOM     44  CG  TYR     5      -0.656 -14.067   9.555  1.00  0.00    -0.020 A 
ATOM     45  CD2 TYR     5      -0.662 -12.679   9.588  1.00  0.00    -0.002 A 
ATOM     46  CE2 TYR     5      -0.780 -12.008  10.802  1.00  0.00     0.027 A 
ATOM     47  CZ  TYR     5      -0.892 -12.727  11.982  1.00  0.00     0.131 A 
ATOM     48  CE1 TYR     5      -0.904 -14.117  11.956  1.00  0.00     0.027 A 
ATOM     49  OH  TYR     5      -0.867 -12.088  13.172  1.00  0.00    -0.190 OA
ATOM     50  CD1 TYR     5      -0.777 -14.786  10.739  1.00  0.00    -0.002 A 
ENDBRANCH  43  44
ENDBRANCH   5  43
ENDBRANCH   3   5
ENDBRANCH   1   2
BRANCH   1  51
ATOM     51  CB  ARG     6      -3.435 -19.655   7.704  1.00  0.00     0.036 C 
BRANCH  51  52
ATOM     52  CG  ARG     6      -3.806 -20.143   9.107  1.00  0.00     0.029 C 
BRANCH  52  53
ATOM     53  CD  ARG     6      -2.653 -19.898  10.076  1.00  0.00     0.145 C 
BRANCH  53  54
ATOM     54  NE  ARG     6      -3.134 -19.853  11.467  1.00  0.00    -0.083 NA
ATOM     55  CZ  ARG     6      -3.238 -18.742  12.222  1.00  0.00     0.782 C 
ATOM     56  NH2 ARG     6      -3.608 -18.825  13.502  1.00  0.00     0.063 N 
ATOM     57  NH1 ARG     6      -2.892 -17.559  11.726  1.00  0.00     0.063 N 
ENDBRANCH  53  54
ENDBRANCH  52  53
ENDBRANCH  51  52
ENDBRANCH   1  51
BRANCH   1  58
ATOM     58  C   ARG     6      -4.940 -17.747   8.044  1.00  0.00     0.274 C 
ATOM     59  N   ASN     7      -4.961 -16.811   8.988  1.00  0.00    -0.228 NA
ATOM     60  O   ARG     6      -5.934 -18.300   7.573  1.00  0.00    -0.268 OA
BRANCH  59  61
ATOM     61  CA  ASN     7      -6.206 -16.231   9.533  1.00  0.00     0.196 C 
BRANCH  61  62
ATOM     62  C   ASN     7      -6.324 -14.730   9.206  1.00  0.00     0.275 C 
ATOM     63  N   PHE     8      -5.996 -14.352   7.961  1.00  0.00    -0.228 NA
ATOM     64  O   ASN     7      -7.046 -14.062   9.920  1.00  0.00    -0.268 OA
BRANCH  63  65
ATOM     65  CA  PHE     8      -6.125 -12.973   7.432  1.00  0.00     0.191 C 
BRANCH  65  66
ATOM     66  CB  PHE     8      -4.715 -12.424   7.172  1.00  0.00     0.060 C 
BRANCH  66  67
ATOM     67  CG  PHE     8      -4.564 -10.911   7.420  1.00  0.00    -0.020 A 
ATOM     68  CD1 PHE     8      -4.056 -10.456   8.629  1.00  0.00    -0.004 A 
ATOM     69  CE1 PHE     8      -4.015  -9.087   8.892  1.00  0.00    -0.000 A 
ATOM     70  CZ  PHE     8      -4.469  -8.189   7.940  1.00  0.00    -0.000 A 
ATOM     71  CE2 PHE     8      -4.967  -8.643   6.723  1.00  0.00    -0.000 A 
ATOM     72  CD2 PHE     8      -5.007 -10.012   6.459  1.00  0.00    -0.004 A 
ENDBRANCH  66  67
ENDBRANCH  65  66
BRANCH  65  73
ATOM     73  C   PHE     8      -7.030 -12.833   6.188  1.00  0.00     0.275 C 
ATOM     74  N   TRP     9      -8.332 -12.656   6.418  1.00  0.00    -0.228 NA
ATOM     75  O   PHE     8      -6.612 -13.122   5.064  1.00  0.00    -0.268 OA
BRANCH  74  76
ATOM     76  CA  TRP     9      -9.296 -12.385   5.324  1.00  0.00     0.191 C 
BRANCH  76  77
ATOM     77  CB  TRP     9     -10.417 -13.436   5.378  1.00  0.00     0.062 C 
BRANCH  77  78
ATOM     78  CG  TRP     9      -9.902 -14.871   5.272  1.00  0.00     0.001 A 
ATOM     79  CD1 TRP     9      -9.822 -15.591   4.157  1.00  0.00     0.095 A 
ATOM     80  NE1 TRP     9      -9.618 -16.867   4.461  1.00  0.00    -0.244 NA
ATOM     81  CE2 TRP     9      -9.541 -17.001   5.777  1.00  0.00     0.081 A 
ATOM     82  CD2 TRP     9      -9.731 -15.748   6.338  1.00  0.00     0.015 A 
ATOM     83  CZ2 TRP     9      -9.426 -18.114   6.609  1.00  0.00     0.019 A 
ATOM     84  CE3 TRP     9      -9.824 -15.592   7.713  1.00  0.00     0.001 A 
ATOM     85  CZ3 TRP     9      -9.724 -16.702   8.544  1.00  0.00     0.000 A 
ATOM     86  CH2 TRP     9      -9.506 -17.960   7.985  1.00  0.00     0.002 A 
ENDBRANCH  77  78
ENDBRANCH  76  77
BRANCH  76  87
ATOM     87  C   TRP     9      -9.864 -10.947   5.310  1.00  0.00     0.275 C 
ATOM     88  O   TRP     9      -9.115  -9.975   5.290  1.00  0.00    -0.268 OA
ATOM     89  N   GLY    10     -11.188 -10.838   5.221  1.00  0.00    -0.226 NA
BRANCH  89  90
ATOM     90  CA  GLY    10     -11.921  -9.544   5.151  1.00  0.00     0.218 C 
BRANCH  90  91
ATOM     91  C   GLY    10     -11.874  -8.805   3.803  1.00  0.00     0.277 C 
ATOM     92  N   CYS    11     -11.705  -7.487   3.889  1.00  0.00    -0.228 NA
ATOM     93  O   GLY    10     -12.150  -9.390   2.762  1.00  0.00    -0.268 OA
BRANCH  92  94
ATOM     94  CA  CYS    11     -11.601  -6.535   2.760  1.00  0.00     0.198 C 
BRANCH  94  95
ATOM     95  C   CYS    11     -10.288  -5.745   2.920  1.00  0.00     0.275 C 
ATOM     96  O   CYS    11     -10.256  -4.567   2.580  1.00  0.00    -0.268 OA
ATOM     97  N   GLY    12      -9.215  -6.456   3.235  1.00  0.00    -0.225 NA
BRANCH  97  98
ATOM     98  CA  GLY    12      -7.882  -5.860   3.410  1.00  0.00     0.226 C 
BRANCH  98  99
ATOM     99  C   GLY    12      -6.830  -6.975   3.204  1.00  0.00     0.211 C 
ATOM    100  O1  GLY    12      -5.743  -6.634   2.672  1.00  0.00    -0.646 OA
ATOM    101  O2  GLY    12      -7.111  -8.119   3.607  1.00  0.00    -0.646 OA
ENDBRANCH  98  99
ENDBRANCH  97  98
ENDBRANCH  94  95
BRANCH  94 102
ATOM    102  CB  CYS    11     -12.719  -5.498   2.841  1.00  0.00     0.103 C 
ATOM    103  SG  CYS    11     -13.348  -5.119   4.522  1.00  0.00    -0.080 SA
ENDBRANCH  94 102
ENDBRANCH  92  94
ENDBRANCH  90  91
ENDBRANCH  89  90
ENDBRANCH  76  87
ENDBRANCH  74  76
ENDBRANCH  65  73
ENDBRANCH  63  65
ENDBRANCH  61  62
BRANCH  61 104
ATOM    104  CB  ASN     7      -6.317 -16.470  11.044  1.00  0.00     0.126 C 
BRANCH 104 105
ATOM    105  CG  ASN     7      -6.925 -17.828  11.442  1.00  0.00     0.276 C 
ATOM    106  ND2 ASN     7      -6.918 -18.109  12.725  1.00  0.00    -0.107 N 
ATOM    107  OD1 ASN     7      -7.262 -18.704  10.657  1.00  0.00    -0.269 OA
ENDBRANCH 104 105
ENDBRANCH  61 104
ENDBRANCH  59  61
ENDBRANCH   1  58
TORSDOF 42
ENDMDL
MODEL 4
REMARK VINA RESULT:      -5.3     15.886     25.605
REMARK WARNING: 32 MAX_TORS EXCEEDED!!!
REMARK  42 active torsions:
REMARK  status: ('A' for Active; 'I' for Inactive)
REMARK    1  A    between atoms: CA_2  and  CB_3 
REMARK    2  A    between atoms: CA_2  and  C_11 
REMARK    3  A    between atoms: CB_3  and  CG_4 
REMARK       I    between atoms: C_11  and  N_13 
REMARK    4  A    between atoms: N_13  and  CA_14 
REMARK    5  A    between atoms: CA_14  and  CB_15 
REMARK    6  A    between atoms: CA_14  and  C_19 
REMARK    7  A    between atoms: CB_15  and  CG_16 
REMARK       I    between atoms: C_19  and  N_21 
REMARK    8  A    between atoms: CA_22  and  C_26 
REMARK       I    between atoms: C_26  and  N_28 
REMARK    9  A    between atoms: N_28  and  CA_29 
REMARK   10  A    between atoms: CA_29  and  C_35 
REMARK   11  A    between atoms: CA_29  and  CB_30 
REMARK   12  A    between atoms: CB_30  and  CG_31 
REMARK   13  A    between atoms: CG_31  and  CD_32 
REMARK       I    between atoms: C_35  and  N_37 
REMARK   14  A    between atoms: N_37  and  CA_38 
REMARK   15  A    between atoms: CA_38  and  CB_39 
REMARK   16  A    between atoms: CA_38  and  C_47 
REMARK   17  A    between atoms: CB_39  and  CG_40 
REMARK       I    between atoms: C_47  and  N_49 
REMARK   18  A    between atoms: N_49  and  CA_50 
REMARK   19  A    between atoms: CA_50  and  CB_51 
REMARK   20  A    between atoms: CA_50  and  C_58 
REMARK   21  A    between atoms: CB_51  and  CG_52 
REMARK   22  A    between atoms: CG_52  and  CD_53 
REMARK   23  A    between atoms: CD_53  and  NE_54 
REMARK       I    between atoms: C_58  and  N_60 
REMARK   24  A    between atoms: N_60  and  CA_61 
REMARK   25  A    between atoms: CA_61  and  C_66 
REMARK   26  A    between atoms: CA_61  and  CB_62 
REMARK   27  A    between atoms: CB_62  and  CG_63 
REMARK       I    between atoms: C_66  and  N_68 
REMARK   28  A    between atoms: N_68  and  CA_69 
REMARK   29  A    between atoms: CA_69  and  CB_70 
REMARK   30  A    between atoms: CA_69  and  C_77 
REMARK   31  A    between atoms: CB_70  and  CG_71 
REMARK       I    between atoms: C_77  and  N_79 
REMARK   32  A    between atoms: N_79  and  CA_80 
REMARK   33  A    between atoms: CA_80  and  CB_81 
REMARK   34  A    between atoms: CA_80  and  C_91 
REMARK   35  A    between atoms: CB_81  and  CG_82 
REMARK       I    between atoms: C_91  and  N_93 
REMARK   36  A    between atoms: N_93  and  CA_94 
REMARK   37  A    between atoms: CA_94  and  C_95 
REMARK       I    between atoms: C_95  and  N_97 
REMARK   38  A    between atoms: N_97  and  CA_98 
REMARK   39  A    between atoms: CA_98  and  C_101 
REMARK   40  A    between atoms: CA_98  and  CB_99 
REMARK       I    between atoms: C_101  and  N_103 
REMARK   41  A    between atoms: N_103  and  CA_104 
REMARK   42  A    between atoms: CA_104  and  C_105 
ROOT
ATOM      1  CA  ARG     6      -3.474 -17.456   8.391  1.00  0.00     0.186 C 
ENDROOT
BRANCH   1   2
ATOM      2  N   ARG     6      -3.233 -18.817   7.859  1.00  0.00    -0.229 NA
ATOM      3  C   TYR     5      -2.927 -19.853   8.652  1.00  0.00     0.275 C 
ATOM      4  O   TYR     5      -2.856 -19.747   9.876  1.00  0.00    -0.268 OA
BRANCH   3   5
ATOM      5  CA  TYR     5      -2.775 -21.228   7.980  1.00  0.00     0.191 C 
BRANCH   5   6
ATOM      6  N   TYR     5      -3.220 -21.248   6.563  1.00  0.00    -0.228 NA
ATOM      7  C   GLU     4      -4.382 -21.793   6.166  1.00  0.00     0.274 C 
ATOM      8  O   GLU     4      -5.228 -22.191   6.956  1.00  0.00    -0.268 OA
BRANCH   7   9
ATOM      9  CA  GLU     4      -4.749 -21.600   4.681  1.00  0.00     0.187 C 
BRANCH   9  10
ATOM     10  CB  GLU     4      -6.012 -22.409   4.346  1.00  0.00     0.045 C 
BRANCH  10  11
ATOM     11  CG  GLU     4      -7.196 -21.613   3.754  1.00  0.00     0.100 C 
BRANCH  11  12
ATOM     12  CD  GLU     4      -8.285 -21.257   4.766  1.00  0.00     0.185 C 
ATOM     13  OE1 GLU     4      -9.197 -22.104   4.955  1.00  0.00    -0.647 OA
ATOM     14  OE2 GLU     4      -8.481 -20.043   4.975  1.00  0.00    -0.647 OA
ENDBRANCH  11  12
ENDBRANCH  10  11
ENDBRANCH   9  10
BRANCH   9  15
ATOM     15  N   GLU     4      -3.672 -22.005   3.757  1.00  0.00    -0.229 NA
ATOM     16  C   PRO     3      -3.207 -23.227   3.525  1.00  0.00     0.272 C 
ATOM     17  O   PRO     3      -3.848 -24.251   3.766  1.00  0.00    -0.269 OA
BRANCH  16  18
ATOM     18  CA  PRO     3      -2.073 -23.311   2.501  1.00  0.00     0.165 C 
ATOM     19  N   PRO     3      -0.779 -23.778   3.044  1.00  0.00    -0.312 N 
ATOM     20  CD  PRO     3      -0.134 -24.699   2.073  1.00  0.00     0.105 C 
ATOM     21  C   ASP     2      -0.222 -23.303   4.173  1.00  0.00     0.257 C 
ATOM     22  CG  PRO     3      -1.007 -24.593   0.813  1.00  0.00     0.027 C 
ATOM     23  CB  PRO     3      -2.395 -24.270   1.358  1.00  0.00     0.034 C 
ATOM     24  O   ASP     2      -0.673 -22.281   4.712  1.00  0.00    -0.270 OA
BRANCH  21  25
ATOM     25  CA  ASP     2       1.176 -23.804   4.600  1.00  0.00     0.195 C 
BRANCH  25  26
ATOM     26  CB  ASP     2       1.211 -25.058   5.510  1.00  0.00     0.132 C 
BRANCH  26  27
ATOM     27  CG  ASP     2       1.661 -26.293   4.707  1.00  0.00     0.188 C 
ATOM     28  OD2 ASP     2       2.555 -26.083   3.847  1.00  0.00    -0.647 OA
ATOM     29  OD1 ASP     2       0.803 -27.193   4.527  1.00  0.00    -0.647 OA
ENDBRANCH  26  27
ENDBRANCH  25  26
BRANCH  25  30
ATOM     30  N   ASP     2       1.899 -22.805   5.406  1.00  0.00    -0.228 NA
ATOM     31  C   TYR     1       3.145 -22.879   5.814  1.00  0.00     0.289 C 
ATOM     32  O   TYR     1       3.999 -23.715   5.502  1.00  0.00    -0.268 OA
BRANCH  31  33
ATOM     33  CA  TYR     1       3.487 -21.773   6.807  1.00  0.00     0.385 C 
ATOM     34  N   TYR     1       3.202 -22.278   8.160  1.00  0.00     0.626 N 
BRANCH  33  35
ATOM     35  CB  TYR     1       4.961 -21.426   6.611  1.00  0.00     0.075 C 
BRANCH  35  36
ATOM     36  CG  TYR     1       5.273 -19.947   6.891  1.00  0.00    -0.019 A 
ATOM     37  CD2 TYR     1       5.544 -19.496   8.173  1.00  0.00    -0.002 A 
ATOM     38  CE2 TYR     1       5.954 -18.188   8.380  1.00  0.00     0.027 A 
ATOM     39  CZ  TYR     1       6.083 -17.334   7.285  1.00  0.00     0.131 A 
ATOM     40  CE1 TYR     1       5.771 -17.780   6.013  1.00  0.00     0.027 A 
ATOM     41  OH  TYR     1       6.655 -16.123   7.433  1.00  0.00    -0.190 OA
ATOM     42  CD1 TYR     1       5.360 -19.088   5.806  1.00  0.00    -0.002 A 
ENDBRANCH  35  36
ENDBRANCH  33  35
ENDBRANCH  31  33
ENDBRANCH  25  30
ENDBRANCH  21  25
ENDBRANCH  16  18
ENDBRANCH   9  15
ENDBRANCH   7   9
ENDBRANCH   5   6
BRANCH   5  43
ATOM     43  CB  TYR     5      -1.326 -21.733   8.085  1.00  0.00     0.060 C 
BRANCH  43  44
ATOM     44  CG  TYR     5      -0.299 -20.599   7.920  1.00  0.00    -0.020 A 
ATOM     45  CD2 TYR     5      -0.148 -19.954   6.699  1.00  0.00    -0.002 A 
ATOM     46  CE2 TYR     5       0.778 -18.925   6.562  1.00  0.00     0.027 A 
ATOM     47  CZ  TYR     5       1.553 -18.540   7.645  1.00  0.00     0.131 A 
ATOM     48  CE1 TYR     5       1.395 -19.169   8.875  1.00  0.00     0.027 A 
ATOM     49  OH  TYR     5       2.548 -17.641   7.485  1.00  0.00    -0.190 OA
ATOM     50  CD1 TYR     5       0.473 -20.207   9.008  1.00  0.00    -0.002 A 
ENDBRANCH  43  44
ENDBRANCH   5  43
ENDBRANCH   3   5
ENDBRANCH   1   2
BRANCH   1  51
ATOM     51  CB  ARG     6      -2.820 -16.365   7.548  1.00  0.00     0.036 C 
BRANCH  51  52
ATOM     52  CG  ARG     6      -1.351 -16.116   7.899  1.00  0.00     0.029 C 
BRANCH  52  53
ATOM     53  CD  ARG     6      -1.149 -14.671   8.346  1.00  0.00     0.145 C 
BRANCH  53  54
ATOM     54  NE  ARG     6      -0.685 -14.611   9.742  1.00  0.00    -0.083 NA
ATOM     55  CZ  ARG     6      -1.307 -13.964  10.746  1.00  0.00     0.782 C 
ATOM     56  NH2 ARG     6      -0.755 -13.903  11.959  1.00  0.00     0.063 N 
ATOM     57  NH1 ARG     6      -2.438 -13.305  10.519  1.00  0.00     0.063 N 
ENDBRANCH  53  54
ENDBRANCH  52  53
ENDBRANCH  51  52
ENDBRANCH   1  51
BRANCH   1  58
ATOM     58  C   ARG     6      -4.967 -17.113   8.470  1.00  0.00     0.274 C 
ATOM     59  N   ASN     7      -5.334 -16.367   9.508  1.00  0.00    -0.228 NA
ATOM     60  O   ARG     6      -5.728 -17.535   7.598  1.00  0.00    -0.268 OA
BRANCH  59  61
ATOM     61  CA  ASN     7      -6.707 -15.856   9.700  1.00  0.00     0.196 C 
BRANCH  61  62
ATOM     62  C   ASN     7      -6.840 -14.396   9.223  1.00  0.00     0.275 C 
ATOM     63  N   PHE     8      -6.165 -14.055   8.116  1.00  0.00    -0.228 NA
ATOM     64  O   ASN     7      -7.806 -13.771   9.617  1.00  0.00    -0.268 OA
BRANCH  63  65
ATOM     65  CA  PHE     8      -6.233 -12.728   7.456  1.00  0.00     0.191 C 
BRANCH  65  66
ATOM     66  CB  PHE     8      -4.800 -12.257   7.173  1.00  0.00     0.060 C 
BRANCH  66  67
ATOM     67  CG  PHE     8      -4.550 -10.767   7.468  1.00  0.00    -0.020 A 
ATOM     68  CD1 PHE     8      -4.080 -10.377   8.715  1.00  0.00    -0.004 A 
ATOM     69  CE1 PHE     8      -3.951  -9.021   9.016  1.00  0.00    -0.000 A 
ATOM     70  CZ  PHE     8      -4.279  -8.071   8.062  1.00  0.00    -0.000 A 
ATOM     71  CE2 PHE     8      -4.737  -8.459   6.807  1.00  0.00    -0.000 A 
ATOM     72  CD2 PHE     8      -4.866  -9.815   6.507  1.00  0.00    -0.004 A 
ENDBRANCH  66  67
ENDBRANCH  65  66
BRANCH  65  73
ATOM     73  C   PHE     8      -7.113 -12.676   6.186  1.00  0.00     0.275 C 
ATOM     74  N   TRP     9      -8.433 -12.697   6.377  1.00  0.00    -0.228 NA
ATOM     75  O   PHE     8      -6.624 -12.862   5.069  1.00  0.00    -0.268 OA
BRANCH  74  76
ATOM     76  CA  TRP     9      -9.393 -12.529   5.258  1.00  0.00     0.191 C 
BRANCH  76  77
ATOM     77  CB  TRP     9     -10.391 -13.698   5.281  1.00  0.00     0.062 C 
BRANCH  77  78
ATOM     78  CG  TRP     9     -10.103 -14.756   4.216  1.00  0.00     0.001 A 
ATOM     79  CD1 TRP     9      -9.018 -14.816   3.448  1.00  0.00     0.095 A 
ATOM     80  NE1 TRP     9      -9.223 -15.665   2.450  1.00  0.00    -0.244 NA
ATOM     81  CE2 TRP     9     -10.434 -16.190   2.556  1.00  0.00     0.081 A 
ATOM     82  CD2 TRP     9     -11.040 -15.625   3.667  1.00  0.00     0.015 A 
ATOM     83  CZ2 TRP     9     -11.168 -17.050   1.739  1.00  0.00     0.019 A 
ATOM     84  CE3 TRP     9     -12.367 -15.893   3.966  1.00  0.00     0.001 A 
ATOM     85  CZ3 TRP     9     -13.105 -16.739   3.145  1.00  0.00     0.000 A 
ATOM     86  CH2 TRP     9     -12.492 -17.331   2.042  1.00  0.00     0.002 A 
ENDBRANCH  77  78
ENDBRANCH  76  77
BRANCH  76  87
ATOM     87  C   TRP     9     -10.117 -11.163   5.234  1.00  0.00     0.275 C 
ATOM     88  O   TRP     9      -9.492 -10.116   5.377  1.00  0.00    -0.268 OA
ATOM     89  N   GLY    10     -11.418 -11.192   4.953  1.00  0.00    -0.226 NA
BRANCH  89  90
ATOM     90  CA  GLY    10     -12.279  -9.982   4.841  1.00  0.00     0.218 C 
BRANCH  90  91
ATOM     91  C   GLY    10     -12.127  -9.153   3.556  1.00  0.00     0.277 C 
ATOM     92  N   CYS    11     -11.682  -7.911   3.736  1.00  0.00    -0.228 NA
ATOM     93  O   GLY    10     -12.558  -9.574   2.488  1.00  0.00    -0.268 OA
BRANCH  92  94
ATOM     94  CA  CYS    11     -11.422  -6.905   2.681  1.00  0.00     0.198 C 
BRANCH  94  95
ATOM     95  C   CYS    11      -9.942  -6.484   2.777  1.00  0.00     0.275 C 
ATOM     96  O   CYS    11      -9.073  -7.347   2.733  1.00  0.00    -0.268 OA
ATOM     97  N   GLY    12      -9.718  -5.219   3.103  1.00  0.00    -0.225 NA
BRANCH  97  98
ATOM     98  CA  GLY    12      -8.366  -4.658   3.252  1.00  0.00     0.226 C 
BRANCH  98  99
ATOM     99  C   GLY    12      -8.310  -3.330   2.461  1.00  0.00     0.211 C 
ATOM    100  O1  GLY    12      -9.056  -3.243   1.453  1.00  0.00    -0.646 OA
ATOM    101  O2  GLY    12      -7.565  -2.430   2.890  1.00  0.00    -0.646 OA
ENDBRANCH  98  99
ENDBRANCH  97  98
ENDBRANCH  94  95
BRANCH  94 102
ATOM    102  CB  CYS    11     -12.230  -5.638   2.952  1.00  0.00     0.103 C 
ATOM    103  SG  CYS    11     -13.856  -5.875   3.766  1.00  0.00    -0.080 SA
ENDBRANCH  94 102
ENDBRANCH  92  94
ENDBRANCH  90  91
ENDBRANCH  89  90
ENDBRANCH  76  87
ENDBRANCH  74  76
ENDBRANCH  65  73
ENDBRANCH  63  65
ENDBRANCH  61  62
BRANCH  61 104
ATOM    104  CB  ASN     7      -7.154 -15.996  11.160  1.00  0.00     0.126 C 
BRANCH 104 105
ATOM    105  CG  ASN     7      -6.322 -15.186  12.172  1.00  0.00     0.276 C 
ATOM    106  ND2 ASN     7      -6.977 -14.283  12.865  1.00  0.00    -0.107 N 
ATOM    107  OD1 ASN     7      -5.101 -15.216  12.262  1.00  0.00    -0.269 OA
ENDBRANCH 104 105
ENDBRANCH  61 104
ENDBRANCH  59  61
ENDBRANCH   1  58
TORSDOF 42
ENDMDL
MODEL 5
REMARK VINA RESULT:      -5.3     15.177     21.906
REMARK WARNING: 32 MAX_TORS EXCEEDED!!!
REMARK  42 active torsions:
REMARK  status: ('A' for Active; 'I' for Inactive)
REMARK    1  A    between atoms: CA_2  and  CB_3 
REMARK    2  A    between atoms: CA_2  and  C_11 
REMARK    3  A    between atoms: CB_3  and  CG_4 
REMARK       I    between atoms: C_11  and  N_13 
REMARK    4  A    between atoms: N_13  and  CA_14 
REMARK    5  A    between atoms: CA_14  and  CB_15 
REMARK    6  A    between atoms: CA_14  and  C_19 
REMARK    7  A    between atoms: CB_15  and  CG_16 
REMARK       I    between atoms: C_19  and  N_21 
REMARK    8  A    between atoms: CA_22  and  C_26 
REMARK       I    between atoms: C_26  and  N_28 
REMARK    9  A    between atoms: N_28  and  CA_29 
REMARK   10  A    between atoms: CA_29  and  C_35 
REMARK   11  A    between atoms: CA_29  and  CB_30 
REMARK   12  A    between atoms: CB_30  and  CG_31 
REMARK   13  A    between atoms: CG_31  and  CD_32 
REMARK       I    between atoms: C_35  and  N_37 
REMARK   14  A    between atoms: N_37  and  CA_38 
REMARK   15  A    between atoms: CA_38  and  CB_39 
REMARK   16  A    between atoms: CA_38  and  C_47 
REMARK   17  A    between atoms: CB_39  and  CG_40 
REMARK       I    between atoms: C_47  and  N_49 
REMARK   18  A    between atoms: N_49  and  CA_50 
REMARK   19  A    between atoms: CA_50  and  CB_51 
REMARK   20  A    between atoms: CA_50  and  C_58 
REMARK   21  A    between atoms: CB_51  and  CG_52 
REMARK   22  A    between atoms: CG_52  and  CD_53 
REMARK   23  A    between atoms: CD_53  and  NE_54 
REMARK       I    between atoms: C_58  and  N_60 
REMARK   24  A    between atoms: N_60  and  CA_61 
REMARK   25  A    between atoms: CA_61  and  C_66 
REMARK   26  A    between atoms: CA_61  and  CB_62 
REMARK   27  A    between atoms: CB_62  and  CG_63 
REMARK       I    between atoms: C_66  and  N_68 
REMARK   28  A    between atoms: N_68  and  CA_69 
REMARK   29  A    between atoms: CA_69  and  CB_70 
REMARK   30  A    between atoms: CA_69  and  C_77 
REMARK   31  A    between atoms: CB_70  and  CG_71 
REMARK       I    between atoms: C_77  and  N_79 
REMARK   32  A    between atoms: N_79  and  CA_80 
REMARK   33  A    between atoms: CA_80  and  CB_81 
REMARK   34  A    between atoms: CA_80  and  C_91 
REMARK   35  A    between atoms: CB_81  and  CG_82 
REMARK       I    between atoms: C_91  and  N_93 
REMARK   36  A    between atoms: N_93  and  CA_94 
REMARK   37  A    between atoms: CA_94  and  C_95 
REMARK       I    between atoms: C_95  and  N_97 
REMARK   38  A    between atoms: N_97  and  CA_98 
REMARK   39  A    between atoms: CA_98  and  C_101 
REMARK   40  A    between atoms: CA_98  and  CB_99 
REMARK       I    between atoms: C_101  and  N_103 
REMARK   41  A    between atoms: N_103  and  CA_104 
REMARK   42  A    between atoms: CA_104  and  C_105 
ROOT
ATOM      1  CA  ARG     6      -0.484 -13.020  10.046  1.00  0.00     0.186 C 
ENDROOT
BRANCH   1   2
ATOM      2  N   ARG     6      -1.705 -12.641   9.297  1.00  0.00    -0.229 NA
ATOM      3  C   TYR     5      -2.937 -12.856   9.777  1.00  0.00     0.275 C 
ATOM      4  O   TYR     5      -3.135 -13.357  10.884  1.00  0.00    -0.268 OA
BRANCH   3   5
ATOM      5  CA  TYR     5      -4.116 -12.348   8.932  1.00  0.00     0.191 C 
BRANCH   5   6
ATOM      6  N   TYR     5      -5.445 -12.641   9.530  1.00  0.00    -0.228 NA
ATOM      7  C   GLU     4      -6.220 -13.662   9.130  1.00  0.00     0.274 C 
ATOM      8  O   GLU     4      -5.835 -14.514   8.340  1.00  0.00    -0.268 OA
BRANCH   7   9
ATOM      9  CA  GLU     4      -7.501 -13.902   9.956  1.00  0.00     0.187 C 
BRANCH   9  10
ATOM     10  CB  GLU     4      -7.158 -14.682  11.235  1.00  0.00     0.045 C 
BRANCH  10  11
ATOM     11  CG  GLU     4      -7.920 -14.268  12.513  1.00  0.00     0.100 C 
BRANCH  11  12
ATOM     12  CD  GLU     4      -8.042 -12.757  12.711  1.00  0.00     0.185 C 
ATOM     13  OE1 GLU     4      -6.986 -12.119  12.958  1.00  0.00    -0.647 OA
ATOM     14  OE2 GLU     4      -9.154 -12.328  13.081  1.00  0.00    -0.647 OA
ENDBRANCH  11  12
ENDBRANCH  10  11
ENDBRANCH   9  10
BRANCH   9  15
ATOM     15  N   GLU     4      -8.540 -14.645   9.216  1.00  0.00    -0.229 NA
ATOM     16  C   PRO     3      -9.845 -14.689   9.457  1.00  0.00     0.272 C 
ATOM     17  O   PRO     3     -10.442 -13.828  10.105  1.00  0.00    -0.269 OA
BRANCH  16  18
ATOM     18  CA  PRO     3     -10.657 -15.562   8.498  1.00  0.00     0.165 C 
ATOM     19  N   PRO     3     -10.472 -15.248   7.065  1.00  0.00    -0.312 N 
ATOM     20  CD  PRO     3     -10.412 -16.508   6.282  1.00  0.00     0.105 C 
ATOM     21  C   ASP     2     -10.515 -14.003   6.557  1.00  0.00     0.257 C 
ATOM     22  CG  PRO     3     -10.791 -17.602   7.293  1.00  0.00     0.027 C 
ATOM     23  CB  PRO     3     -10.310 -17.043   8.629  1.00  0.00     0.034 C 
ATOM     24  O   ASP     2     -10.929 -13.059   7.246  1.00  0.00    -0.270 OA
BRANCH  21  25
ATOM     25  CA  ASP     2     -10.394 -13.800   5.029  1.00  0.00     0.195 C 
BRANCH  25  26
ATOM     26  CB  ASP     2      -9.002 -13.372   4.498  1.00  0.00     0.132 C 
BRANCH  26  27
ATOM     27  CG  ASP     2      -8.479 -14.395   3.473  1.00  0.00     0.188 C 
ATOM     28  OD2 ASP     2      -9.039 -14.369   2.348  1.00  0.00    -0.647 OA
ATOM     29  OD1 ASP     2      -8.025 -15.472   3.933  1.00  0.00    -0.647 OA
ENDBRANCH  26  27
ENDBRANCH  25  26
BRANCH  25  30
ATOM     30  N   ASP     2     -11.267 -12.718   4.544  1.00  0.00    -0.228 NA
ATOM     31  C   TYR     1     -12.067 -12.761   3.504  1.00  0.00     0.289 C 
ATOM     32  O   TYR     1     -12.357 -13.740   2.808  1.00  0.00    -0.268 OA
BRANCH  31  33
ATOM     33  CA  TYR     1     -12.649 -11.391   3.173  1.00  0.00     0.385 C 
ATOM     34  N   TYR     1     -14.117 -11.503   3.212  1.00  0.00     0.626 N 
BRANCH  33  35
ATOM     35  CB  TYR     1     -12.111 -10.406   4.208  1.00  0.00     0.075 C 
BRANCH  35  36
ATOM     36  CG  TYR     1     -11.575  -9.109   3.582  1.00  0.00    -0.019 A 
ATOM     37  CD2 TYR     1     -12.259  -8.462   2.564  1.00  0.00    -0.002 A 
ATOM     38  CE2 TYR     1     -11.827  -7.225   2.110  1.00  0.00     0.027 A 
ATOM     39  CZ  TYR     1     -10.696  -6.647   2.685  1.00  0.00     0.131 A 
ATOM     40  CE1 TYR     1      -9.995  -7.317   3.672  1.00  0.00     0.027 A 
ATOM     41  OH  TYR     1     -10.365  -5.372   2.397  1.00  0.00    -0.190 OA
ATOM     42  CD1 TYR     1     -10.427  -8.554   4.125  1.00  0.00    -0.002 A 
ENDBRANCH  35  36
ENDBRANCH  33  35
ENDBRANCH  31  33
ENDBRANCH  25  30
ENDBRANCH  21  25
ENDBRANCH  16  18
ENDBRANCH   9  15
ENDBRANCH   7   9
ENDBRANCH   5   6
BRANCH   5  43
ATOM     43  CB  TYR     5      -3.984 -10.841   8.654  1.00  0.00     0.060 C 
BRANCH  43  44
ATOM     44  CG  TYR     5      -4.804 -10.398   7.431  1.00  0.00    -0.020 A 
ATOM     45  CD2 TYR     5      -5.325 -11.338   6.551  1.00  0.00    -0.002 A 
ATOM     46  CE2 TYR     5      -6.072 -10.928   5.451  1.00  0.00     0.027 A 
ATOM     47  CZ  TYR     5      -6.299  -9.578   5.231  1.00  0.00     0.131 A 
ATOM     48  CE1 TYR     5      -5.796  -8.632   6.117  1.00  0.00     0.027 A 
ATOM     49  OH  TYR     5      -6.902  -9.165   4.095  1.00  0.00    -0.190 OA
ATOM     50  CD1 TYR     5      -5.040  -9.045   7.214  1.00  0.00    -0.002 A 
ENDBRANCH  43  44
ENDBRANCH   5  43
ENDBRANCH   3   5
ENDBRANCH   1   2
BRANCH   1  51
ATOM     51  CB  ARG     6      -0.410 -12.375  11.426  1.00  0.00     0.036 C 
BRANCH  51  52
ATOM     52  CG  ARG     6       0.082 -10.925  11.401  1.00  0.00     0.029 C 
BRANCH  52  53
ATOM     53  CD  ARG     6       0.035 -10.324  12.803  1.00  0.00     0.145 C 
BRANCH  53  54
ATOM     54  NE  ARG     6       1.378  -9.911  13.245  1.00  0.00    -0.083 NA
ATOM     55  CZ  ARG     6       1.729  -8.666  13.617  1.00  0.00     0.782 C 
ATOM     56  NH2 ARG     6       2.997  -8.382  13.921  1.00  0.00     0.063 N 
ATOM     57  NH1 ARG     6       0.834  -7.684  13.604  1.00  0.00     0.063 N 
ENDBRANCH  53  54
ENDBRANCH  52  53
ENDBRANCH  51  52
ENDBRANCH   1  51
BRANCH   1  58
ATOM     58  C   ARG     6      -0.376 -14.535  10.264  1.00  0.00     0.274 C 
ATOM     59  N   ASN     7      -0.108 -15.256   9.179  1.00  0.00    -0.228 NA
ATOM     60  O   ARG     6      -0.541 -14.993  11.396  1.00  0.00    -0.268 OA
BRANCH  59  61
ATOM     61  CA  ASN     7       0.129 -16.714   9.208  1.00  0.00     0.196 C 
BRANCH  61  62
ATOM     62  C   ASN     7       1.369 -17.104   8.380  1.00  0.00     0.275 C 
ATOM     63  N   PHE     8       1.904 -18.311   8.617  1.00  0.00    -0.228 NA
ATOM     64  O   ASN     7       1.549 -16.505   7.337  1.00  0.00    -0.268 OA
BRANCH  63  65
ATOM     65  CA  PHE     8       3.041 -18.897   7.866  1.00  0.00     0.191 C 
BRANCH  65  66
ATOM     66  CB  PHE     8       4.135 -19.281   8.872  1.00  0.00     0.060 C 
BRANCH  66  67
ATOM     67  CG  PHE     8       5.492 -18.597   8.627  1.00  0.00    -0.020 A 
ATOM     68  CD1 PHE     8       5.627 -17.672   7.601  1.00  0.00    -0.004 A 
ATOM     69  CE1 PHE     8       6.880 -17.130   7.315  1.00  0.00    -0.000 A 
ATOM     70  CZ  PHE     8       7.980 -17.505   8.068  1.00  0.00    -0.000 A 
ATOM     71  CE2 PHE     8       7.845 -18.421   9.106  1.00  0.00    -0.000 A 
ATOM     72  CD2 PHE     8       6.593 -18.964   9.392  1.00  0.00    -0.004 A 
ENDBRANCH  66  67
ENDBRANCH  65  66
BRANCH  65  73
ATOM     73  C   PHE     8       2.672 -20.082   6.945  1.00  0.00     0.275 C 
ATOM     74  N   TRP     9       1.379 -20.404   6.881  1.00  0.00    -0.228 NA
ATOM     75  O   PHE     8       3.542 -20.836   6.502  1.00  0.00    -0.268 OA
BRANCH  74  76
ATOM     76  CA  TRP     9       0.870 -21.436   5.944  1.00  0.00     0.191 C 
BRANCH  76  77
ATOM     77  CB  TRP     9       0.724 -22.765   6.703  1.00  0.00     0.062 C 
BRANCH  77  78
ATOM     78  CG  TRP     9       1.546 -23.900   6.094  1.00  0.00     0.001 A 
ATOM     79  CD1 TRP     9       2.475 -23.772   5.152  1.00  0.00     0.095 A 
ATOM     80  NE1 TRP     9       2.773 -24.964   4.651  1.00  0.00    -0.244 NA
ATOM     81  CE2 TRP     9       2.061 -25.895   5.269  1.00  0.00     0.081 A 
ATOM     82  CD2 TRP     9       1.249 -25.256   6.193  1.00  0.00     0.015 A 
ATOM     83  CZ2 TRP     9       1.926 -27.269   5.073  1.00  0.00     0.019 A 
ATOM     84  CE3 TRP     9       0.298 -25.963   6.912  1.00  0.00     0.001 A 
ATOM     85  CZ3 TRP     9       0.153 -27.331   6.709  1.00  0.00     0.000 A 
ATOM     86  CH2 TRP     9       0.984 -27.982   5.800  1.00  0.00     0.002 A 
ENDBRANCH  77  78
ENDBRANCH  76  77
BRANCH  76  87
ATOM     87  C   TRP     9      -0.436 -21.051   5.213  1.00  0.00     0.275 C 
ATOM     88  O   TRP     9      -0.690 -19.879   4.953  1.00  0.00    -0.268 OA
ATOM     89  N   GLY    10      -1.201 -22.062   4.803  1.00  0.00    -0.226 NA
BRANCH  89  90
ATOM     90  CA  GLY    10      -2.473 -21.898   4.046  1.00  0.00     0.218 C 
BRANCH  90  91
ATOM     91  C   GLY    10      -3.713 -21.518   4.870  1.00  0.00     0.277 C 
ATOM     92  N   CYS    11      -3.720 -21.975   6.122  1.00  0.00    -0.228 NA
ATOM     93  O   GLY    10      -4.679 -20.986   4.334  1.00  0.00    -0.268 OA
BRANCH  92  94
ATOM     94  CA  CYS    11      -4.770 -21.744   7.139  1.00  0.00     0.198 C 
BRANCH  94  95
ATOM     95  C   CYS    11      -4.717 -20.260   7.552  1.00  0.00     0.275 C 
ATOM     96  O   CYS    11      -3.684 -19.813   8.038  1.00  0.00    -0.268 OA
ATOM     97  N   GLY    12      -5.872 -19.610   7.535  1.00  0.00    -0.225 NA
BRANCH  97  98
ATOM     98  CA  GLY    12      -6.001 -18.195   7.915  1.00  0.00     0.226 C 
BRANCH  98  99
ATOM     99  C   GLY    12      -6.424 -18.136   9.401  1.00  0.00     0.211 C 
ATOM    100  O1  GLY    12      -7.551 -18.617   9.686  1.00  0.00    -0.646 OA
ATOM    101  O2  GLY    12      -5.616 -17.655  10.216  1.00  0.00    -0.646 OA
ENDBRANCH  98  99
ENDBRANCH  97  98
ENDBRANCH  94  95
BRANCH  94 102
ATOM    102  CB  CYS    11      -4.457 -22.536   8.407  1.00  0.00     0.103 C 
ATOM    103  SG  CYS    11      -5.763 -22.550   9.695  1.00  0.00    -0.080 SA
ENDBRANCH  94 102
ENDBRANCH  92  94
ENDBRANCH  90  91
ENDBRANCH  89  90
ENDBRANCH  76  87
ENDBRANCH  74  76
ENDBRANCH  65  73
ENDBRANCH  63  65
ENDBRANCH  61  62
BRANCH  61 104
ATOM    104  CB  ASN     7      -1.107 -17.489   8.737  1.00  0.00     0.126 C 
BRANCH 104 105
ATOM    105  CG  ASN     7      -1.920 -16.798   7.626  1.00  0.00     0.276 C 
ATOM    106  ND2 ASN     7      -3.125 -16.395   7.959  1.00  0.00    -0.107 N 
ATOM    107  OD1 ASN     7      -1.592 -16.740   6.448  1.00  0.00    -0.269 OA
ENDBRANCH 104 105
ENDBRANCH  61 104
ENDBRANCH  59  61
ENDBRANCH   1  58
TORSDOF 42
ENDMDL
MODEL 6
REMARK VINA RESULT:      -5.3      3.388      7.841
REMARK WARNING: 32 MAX_TORS EXCEEDED!!!
REMARK  42 active torsions:
REMARK  status: ('A' for Active; 'I' for Inactive)
REMARK    1  A    between atoms: CA_2  and  CB_3 
REMARK    2  A    between atoms: CA_2  and  C_11 
REMARK    3  A    between atoms: CB_3  and  CG_4 
REMARK       I    between atoms: C_11  and  N_13 
REMARK    4  A    between atoms: N_13  and  CA_14 
REMARK    5  A    between atoms: CA_14  and  CB_15 
REMARK    6  A    between atoms: CA_14  and  C_19 
REMARK    7  A    between atoms: CB_15  and  CG_16 
REMARK       I    between atoms: C_19  and  N_21 
REMARK    8  A    between atoms: CA_22  and  C_26 
REMARK       I    between atoms: C_26  and  N_28 
REMARK    9  A    between atoms: N_28  and  CA_29 
REMARK   10  A    between atoms: CA_29  and  C_35 
REMARK   11  A    between atoms: CA_29  and  CB_30 
REMARK   12  A    between atoms: CB_30  and  CG_31 
REMARK   13  A    between atoms: CG_31  and  CD_32 
REMARK       I    between atoms: C_35  and  N_37 
REMARK   14  A    between atoms: N_37  and  CA_38 
REMARK   15  A    between atoms: CA_38  and  CB_39 
REMARK   16  A    between atoms: CA_38  and  C_47 
REMARK   17  A    between atoms: CB_39  and  CG_40 
REMARK       I    between atoms: C_47  and  N_49 
REMARK   18  A    between atoms: N_49  and  CA_50 
REMARK   19  A    between atoms: CA_50  and  CB_51 
REMARK   20  A    between atoms: CA_50  and  C_58 
REMARK   21  A    between atoms: CB_51  and  CG_52 
REMARK   22  A    between atoms: CG_52  and  CD_53 
REMARK   23  A    between atoms: CD_53  and  NE_54 
REMARK       I    between atoms: C_58  and  N_60 
REMARK   24  A    between atoms: N_60  and  CA_61 
REMARK   25  A    between atoms: CA_61  and  C_66 
REMARK   26  A    between atoms: CA_61  and  CB_62 
REMARK   27  A    between atoms: CB_62  and  CG_63 
REMARK       I    between atoms: C_66  and  N_68 
REMARK   28  A    between atoms: N_68  and  CA_69 
REMARK   29  A    between atoms: CA_69  and  CB_70 
REMARK   30  A    between atoms: CA_69  and  C_77 
REMARK   31  A    between atoms: CB_70  and  CG_71 
REMARK       I    between atoms: C_77  and  N_79 
REMARK   32  A    between atoms: N_79  and  CA_80 
REMARK   33  A    between atoms: CA_80  and  CB_81 
REMARK   34  A    between atoms: CA_80  and  C_91 
REMARK   35  A    between atoms: CB_81  and  CG_82 
REMARK       I    between atoms: C_91  and  N_93 
REMARK   36  A    between atoms: N_93  and  CA_94 
REMARK   37  A    between atoms: CA_94  and  C_95 
REMARK       I    between atoms: C_95  and  N_97 
REMARK   38  A    between atoms: N_97  and  CA_98 
REMARK   39  A    between atoms: CA_98  and  C_101 
REMARK   40  A    between atoms: CA_98  and  CB_99 
REMARK       I    between atoms: C_101  and  N_103 
REMARK   41  A    between atoms: N_103  and  CA_104 
REMARK   42  A    between atoms: CA_104  and  C_105 
ROOT
ATOM      1  CA  ARG     6      -1.263   2.995   8.949  1.00  0.00     0.186 C 
ENDROOT
BRANCH   1   2
ATOM      2  N   ARG     6      -2.605   2.463   8.613  1.00  0.00    -0.229 NA
ATOM      3  C   TYR     5      -2.923   2.046   7.380  1.00  0.00     0.275 C 
ATOM      4  O   TYR     5      -2.113   2.050   6.453  1.00  0.00    -0.268 OA
BRANCH   3   5
ATOM      5  CA  TYR     5      -4.325   1.447   7.184  1.00  0.00     0.191 C 
BRANCH   5   6
ATOM      6  N   TYR     5      -5.153   1.457   8.419  1.00  0.00    -0.228 NA
ATOM      7  C   GLU     4      -5.835   0.385   8.854  1.00  0.00     0.274 C 
ATOM      8  O   GLU     4      -5.718  -0.723   8.347  1.00  0.00    -0.268 OA
BRANCH   7   9
ATOM      9  CA  GLU     4      -6.525   0.533  10.226  1.00  0.00     0.187 C 
BRANCH   9  10
ATOM     10  CB  GLU     4      -6.862  -0.855  10.792  1.00  0.00     0.045 C 
BRANCH  10  11
ATOM     11  CG  GLU     4      -6.484  -1.101  12.270  1.00  0.00     0.100 C 
BRANCH  11  12
ATOM     12  CD  GLU     4      -5.481  -2.234  12.483  1.00  0.00     0.185 C 
ATOM     13  OE1 GLU     4      -5.654  -2.979  13.483  1.00  0.00    -0.647 OA
ATOM     14  OE2 GLU     4      -4.349  -2.082  11.982  1.00  0.00    -0.647 OA
ENDBRANCH  11  12
ENDBRANCH  10  11
ENDBRANCH   9  10
BRANCH   9  15
ATOM     15  N   GLU     4      -7.764   1.333  10.171  1.00  0.00    -0.229 NA
ATOM     16  C   PRO     3      -8.706   1.323   9.236  1.00  0.00     0.272 C 
ATOM     17  O   PRO     3      -8.878   0.382   8.460  1.00  0.00    -0.269 OA
BRANCH  16  18
ATOM     18  CA  PRO     3      -9.874   2.282   9.476  1.00  0.00     0.165 C 
ATOM     19  N   PRO     3     -10.280   3.074   8.295  1.00  0.00    -0.312 N 
ATOM     20  CD  PRO     3     -11.762   3.162   8.239  1.00  0.00     0.105 C 
ATOM     21  C   ASP     2      -9.419   3.735   7.501  1.00  0.00     0.257 C 
ATOM     22  CG  PRO     3     -12.228   2.564   9.576  1.00  0.00     0.027 C 
ATOM     23  CB  PRO     3     -11.140   1.552   9.920  1.00  0.00     0.034 C 
ATOM     24  O   ASP     2      -8.238   3.888   7.848  1.00  0.00    -0.270 OA
BRANCH  21  25
ATOM     25  CA  ASP     2      -9.963   4.602   6.344  1.00  0.00     0.195 C 
BRANCH  25  26
ATOM     26  CB  ASP     2      -9.994   3.941   4.942  1.00  0.00     0.132 C 
BRANCH  26  27
ATOM     27  CG  ASP     2     -11.411   3.432   4.618  1.00  0.00     0.188 C 
ATOM     28  OD2 ASP     2     -12.339   4.263   4.796  1.00  0.00    -0.647 OA
ATOM     29  OD1 ASP     2     -11.619   2.203   4.775  1.00  0.00    -0.647 OA
ENDBRANCH  26  27
ENDBRANCH  25  26
BRANCH  25  30
ATOM     30  N   ASP     2      -9.136   5.799   6.113  1.00  0.00    -0.228 NA
ATOM     31  C   TYR     1      -9.315   6.989   6.636  1.00  0.00     0.289 C 
ATOM     32  O   TYR     1     -10.112   7.320   7.521  1.00  0.00    -0.268 OA
BRANCH  31  33
ATOM     33  CA  TYR     1      -8.401   8.035   6.004  1.00  0.00     0.385 C 
ATOM     34  N   TYR     1      -8.942   9.364   6.333  1.00  0.00     0.626 N 
BRANCH  33  35
ATOM     35  CB  TYR     1      -7.000   7.817   6.571  1.00  0.00     0.075 C 
BRANCH  35  36
ATOM     36  CG  TYR     1      -5.978   7.401   5.501  1.00  0.00    -0.019 A 
ATOM     37  CD2 TYR     1      -6.081   6.190   4.835  1.00  0.00    -0.002 A 
ATOM     38  CE2 TYR     1      -5.227   5.899   3.782  1.00  0.00     0.027 A 
ATOM     39  CZ  TYR     1      -4.263   6.835   3.409  1.00  0.00     0.131 A 
ATOM     40  CE1 TYR     1      -4.139   8.024   4.105  1.00  0.00     0.027 A 
ATOM     41  OH  TYR     1      -3.549   6.660   2.279  1.00  0.00    -0.190 OA
ATOM     42  CD1 TYR     1      -4.993   8.315   5.158  1.00  0.00    -0.002 A 
ENDBRANCH  35  36
ENDBRANCH  33  35
ENDBRANCH  31  33
ENDBRANCH  25  30
ENDBRANCH  21  25
ENDBRANCH  16  18
ENDBRANCH   9  15
ENDBRANCH   7   9
ENDBRANCH   5   6
BRANCH   5  43
ATOM     43  CB  TYR     5      -5.072   2.157   6.043  1.00  0.00     0.060 C 
BRANCH  43  44
ATOM     44  CG  TYR     5      -6.018   1.211   5.286  1.00  0.00    -0.020 A 
ATOM     45  CD2 TYR     5      -7.384   1.460   5.245  1.00  0.00    -0.002 A 
ATOM     46  CE2 TYR     5      -8.232   0.602   4.551  1.00  0.00     0.027 A 
ATOM     47  CZ  TYR     5      -7.713  -0.506   3.898  1.00  0.00     0.131 A 
ATOM     48  CE1 TYR     5      -6.345  -0.753   3.920  1.00  0.00     0.027 A 
ATOM     49  OH  TYR     5      -8.541  -1.417   3.342  1.00  0.00    -0.190 OA
ATOM     50  CD1 TYR     5      -5.499   0.104   4.623  1.00  0.00    -0.002 A 
ENDBRANCH  43  44
ENDBRANCH   5  43
ENDBRANCH   3   5
ENDBRANCH   1   2
BRANCH   1  51
ATOM     51  CB  ARG     6      -1.322   4.324   9.695  1.00  0.00     0.036 C 
BRANCH  51  52
ATOM     52  CG  ARG     6      -0.189   5.286   9.330  1.00  0.00     0.029 C 
BRANCH  52  53
ATOM     53  CD  ARG     6      -0.039   5.379   7.814  1.00  0.00     0.145 C 
BRANCH  53  54
ATOM     54  NE  ARG     6       0.995   6.359   7.445  1.00  0.00    -0.083 NA
ATOM     55  CZ  ARG     6       0.847   7.697   7.468  1.00  0.00     0.782 C 
ATOM     56  NH2 ARG     6       1.824   8.495   7.032  1.00  0.00     0.063 N 
ATOM     57  NH1 ARG     6      -0.307   8.238   7.844  1.00  0.00     0.063 N 
ENDBRANCH  53  54
ENDBRANCH  52  53
ENDBRANCH  51  52
ENDBRANCH   1  51
BRANCH   1  58
ATOM     58  C   ARG     6      -0.453   2.034   9.827  1.00  0.00     0.274 C 
ATOM     59  N   ASN     7       0.458   1.301   9.193  1.00  0.00    -0.228 NA
ATOM     60  O   ARG     6      -0.683   1.986  11.037  1.00  0.00    -0.268 OA
BRANCH  59  61
ATOM     61  CA  ASN     7       1.398   0.394   9.883  1.00  0.00     0.196 C 
BRANCH  61  62
ATOM     62  C   ASN     7       2.687   0.183   9.065  1.00  0.00     0.275 C 
ATOM     63  N   PHE     8       3.388   1.280   8.744  1.00  0.00    -0.228 NA
ATOM     64  O   ASN     7       3.186  -0.925   9.094  1.00  0.00    -0.268 OA
BRANCH  63  65
ATOM     65  CA  PHE     8       4.693   1.276   8.039  1.00  0.00     0.191 C 
BRANCH  65  66
ATOM     66  CB  PHE     8       4.704   2.443   7.041  1.00  0.00     0.060 C 
BRANCH  66  67
ATOM     67  CG  PHE     8       4.986   3.819   7.675  1.00  0.00    -0.020 A 
ATOM     68  CD1 PHE     8       3.985   4.476   8.377  1.00  0.00    -0.004 A 
ATOM     69  CE1 PHE     8       4.208   5.765   8.862  1.00  0.00    -0.000 A 
ATOM     70  CZ  PHE     8       5.434   6.375   8.653  1.00  0.00    -0.000 A 
ATOM     71  CE2 PHE     8       6.443   5.713   7.961  1.00  0.00    -0.000 A 
ATOM     72  CD2 PHE     8       6.220   4.425   7.476  1.00  0.00    -0.004 A 
ENDBRANCH  66  67
ENDBRANCH  65  66
BRANCH  65  73
ATOM     73  C   PHE     8       5.934   1.301   8.960  1.00  0.00     0.275 C 
ATOM     74  N   TRP     9       6.909   0.440   8.667  1.00  0.00    -0.228 NA
ATOM     75  O   PHE     8       5.909   1.897  10.040  1.00  0.00    -0.268 OA
BRANCH  74  76
ATOM     76  CA  TRP     9       8.204   0.440   9.390  1.00  0.00     0.191 C 
BRANCH  76  77
ATOM     77  CB  TRP     9       8.119  -0.555  10.559  1.00  0.00     0.062 C 
BRANCH  77  78
ATOM     78  CG  TRP     9       7.308  -1.807  10.227  1.00  0.00     0.001 A 
ATOM     79  CD1 TRP     9       6.053  -2.044  10.597  1.00  0.00     0.095 A 
ATOM     80  NE1 TRP     9       5.762  -3.324  10.400  1.00  0.00    -0.244 NA
ATOM     81  CE2 TRP     9       6.813  -3.942   9.881  1.00  0.00     0.081 A 
ATOM     82  CD2 TRP     9       7.832  -3.010   9.765  1.00  0.00     0.015 A 
ATOM     83  CZ2 TRP     9       7.068  -5.278   9.571  1.00  0.00     0.019 A 
ATOM     84  CE3 TRP     9       9.102  -3.392   9.361  1.00  0.00     0.001 A 
ATOM     85  CZ3 TRP     9       9.362  -4.726   9.065  1.00  0.00     0.000 A 
ATOM     86  CH2 TRP     9       8.333  -5.662   9.154  1.00  0.00     0.002 A 
ENDBRANCH  77  78
ENDBRANCH  76  77
BRANCH  76  87
ATOM     87  C   TRP     9       9.437   0.167   8.498  1.00  0.00     0.275 C 
ATOM     88  O   TRP     9      10.571   0.198   8.965  1.00  0.00    -0.268 OA
ATOM     89  N   GLY    10       9.185  -0.196   7.242  1.00  0.00    -0.226 NA
BRANCH  89  90
ATOM     90  CA  GLY    10      10.233  -0.543   6.243  1.00  0.00     0.218 C 
BRANCH  90  91
ATOM     91  C   GLY    10      10.531   0.518   5.171  1.00  0.00     0.277 C 
ATOM     92  N   CYS    11      11.115   1.627   5.623  1.00  0.00    -0.228 NA
ATOM     93  O   GLY    10      10.093   0.395   4.033  1.00  0.00    -0.268 OA
BRANCH  92  94
ATOM     94  CA  CYS    11      11.533   2.795   4.816  1.00  0.00     0.198 C 
BRANCH  94  95
ATOM     95  C   CYS    11      13.068   2.909   4.898  1.00  0.00     0.275 C 
ATOM     96  O   CYS    11      13.565   3.723   5.668  1.00  0.00    -0.268 OA
ATOM     97  N   GLY    12      13.751   2.247   3.976  1.00  0.00    -0.225 NA
BRANCH  97  98
ATOM     98  CA  GLY    12      15.220   2.261   3.901  1.00  0.00     0.226 C 
BRANCH  98  99
ATOM     99  C   GLY    12      15.644   1.429   2.669  1.00  0.00     0.211 C 
ATOM    100  O1  GLY    12      16.100   0.279   2.895  1.00  0.00    -0.646 OA
ATOM    101  O2  GLY    12      15.475   1.932   1.543  1.00  0.00    -0.646 OA
ENDBRANCH  98  99
ENDBRANCH  97  98
ENDBRANCH  94  95
BRANCH  94 102
ATOM    102  CB  CYS    11      10.991   4.082   5.433  1.00  0.00     0.103 C 
ATOM    103  SG  CYS    11       9.965   3.885   6.941  1.00  0.00    -0.080 SA
ENDBRANCH  94 102
ENDBRANCH  92  94
ENDBRANCH  90  91
ENDBRANCH  89  90
ENDBRANCH  76  87
ENDBRANCH  74  76
ENDBRANCH  65  73
ENDBRANCH  63  65
ENDBRANCH  61  62
BRANCH  61 104
ATOM    104  CB  ASN     7       0.734  -0.950  10.211  1.00  0.00     0.126 C 
BRANCH 104 105
ATOM    105  CG  ASN     7       0.902  -1.416  11.669  1.00  0.00     0.276 C 
ATOM    106  ND2 ASN     7       1.653  -2.478  11.852  1.00  0.00    -0.107 N 
ATOM    107  OD1 ASN     7       0.277  -0.974  12.625  1.00  0.00    -0.269 OA
ENDBRANCH 104 105
ENDBRANCH  61 104
ENDBRANCH  59  61
ENDBRANCH   1  58
TORSDOF 42
ENDMDL
MODEL 7
REMARK VINA RESULT:      -5.3      2.864      4.703
REMARK WARNING: 32 MAX_TORS EXCEEDED!!!
REMARK  42 active torsions:
REMARK  status: ('A' for Active; 'I' for Inactive)
REMARK    1  A    between atoms: CA_2  and  CB_3 
REMARK    2  A    between atoms: CA_2  and  C_11 
REMARK    3  A    between atoms: CB_3  and  CG_4 
REMARK       I    between atoms: C_11  and  N_13 
REMARK    4  A    between atoms: N_13  and  CA_14 
REMARK    5  A    between atoms: CA_14  and  CB_15 
REMARK    6  A    between atoms: CA_14  and  C_19 
REMARK    7  A    between atoms: CB_15  and  CG_16 
REMARK       I    between atoms: C_19  and  N_21 
REMARK    8  A    between atoms: CA_22  and  C_26 
REMARK       I    between atoms: C_26  and  N_28 
REMARK    9  A    between atoms: N_28  and  CA_29 
REMARK   10  A    between atoms: CA_29  and  C_35 
REMARK   11  A    between atoms: CA_29  and  CB_30 
REMARK   12  A    between atoms: CB_30  and  CG_31 
REMARK   13  A    between atoms: CG_31  and  CD_32 
REMARK       I    between atoms: C_35  and  N_37 
REMARK   14  A    between atoms: N_37  and  CA_38 
REMARK   15  A    between atoms: CA_38  and  CB_39 
REMARK   16  A    between atoms: CA_38  and  C_47 
REMARK   17  A    between atoms: CB_39  and  CG_40 
REMARK       I    between atoms: C_47  and  N_49 
REMARK   18  A    between atoms: N_49  and  CA_50 
REMARK   19  A    between atoms: CA_50  and  CB_51 
REMARK   20  A    between atoms: CA_50  and  C_58 
REMARK   21  A    between atoms: CB_51  and  CG_52 
REMARK   22  A    between atoms: CG_52  and  CD_53 
REMARK   23  A    between atoms: CD_53  and  NE_54 
REMARK       I    between atoms: C_58  and  N_60 
REMARK   24  A    between atoms: N_60  and  CA_61 
REMARK   25  A    between atoms: CA_61  and  C_66 
REMARK   26  A    between atoms: CA_61  and  CB_62 
REMARK   27  A    between atoms: CB_62  and  CG_63 
REMARK       I    between atoms: C_66  and  N_68 
REMARK   28  A    between atoms: N_68  and  CA_69 
REMARK   29  A    between atoms: CA_69  and  CB_70 
REMARK   30  A    between atoms: CA_69  and  C_77 
REMARK   31  A    between atoms: CB_70  and  CG_71 
REMARK       I    between atoms: C_77  and  N_79 
REMARK   32  A    between atoms: N_79  and  CA_80 
REMARK   33  A    between atoms: CA_80  and  CB_81 
REMARK   34  A    between atoms: CA_80  and  C_91 
REMARK   35  A    between atoms: CB_81  and  CG_82 
REMARK       I    between atoms: C_91  and  N_93 
REMARK   36  A    between atoms: N_93  and  CA_94 
REMARK   37  A    between atoms: CA_94  and  C_95 
REMARK       I    between atoms: C_95  and  N_97 
REMARK   38  A    between atoms: N_97  and  CA_98 
REMARK   39  A    between atoms: CA_98  and  C_101 
REMARK   40  A    between atoms: CA_98  and  CB_99 
REMARK       I    between atoms: C_101  and  N_103 
REMARK   41  A    between atoms: N_103  and  CA_104 
REMARK   42  A    between atoms: CA_104  and  C_105 
ROOT
ATOM      1  CA  ARG     6       0.173   2.409   9.648  1.00  0.00     0.186 C 
ENDROOT
BRANCH   1   2
ATOM      2  N   ARG     6       0.976   3.337   8.817  1.00  0.00    -0.229 NA
ATOM      3  C   TYR     5       1.571   4.424   9.326  1.00  0.00     0.275 C 
ATOM      4  O   TYR     5       1.513   4.707  10.523  1.00  0.00    -0.268 OA
BRANCH   3   5
ATOM      5  CA  TYR     5       2.435   5.262   8.370  1.00  0.00     0.191 C 
BRANCH   5   6
ATOM      6  N   TYR     5       2.631   6.663   8.822  1.00  0.00    -0.228 NA
ATOM      7  C   GLU     4       2.291   7.729   8.078  1.00  0.00     0.274 C 
ATOM      8  O   GLU     4       1.666   7.630   7.030  1.00  0.00    -0.268 OA
BRANCH   7   9
ATOM      9  CA  GLU     4       2.434   9.105   8.760  1.00  0.00     0.187 C 
BRANCH   9  10
ATOM     10  CB  GLU     4       3.168   8.947  10.102  1.00  0.00     0.045 C 
BRANCH  10  11
ATOM     11  CG  GLU     4       2.494   9.598  11.330  1.00  0.00     0.100 C 
BRANCH  11  12
ATOM     12  CD  GLU     4       2.155   8.619  12.453  1.00  0.00     0.185 C 
ATOM     13  OE1 GLU     4       1.516   7.580  12.142  1.00  0.00    -0.647 OA
ATOM     14  OE2 GLU     4       2.094   9.089  13.607  1.00  0.00    -0.647 OA
ENDBRANCH  11  12
ENDBRANCH  10  11
ENDBRANCH   9  10
BRANCH   9  15
ATOM     15  N   GLU     4       1.141   9.770   9.006  1.00  0.00    -0.229 NA
ATOM     16  C   PRO     3       0.624  10.817   8.374  1.00  0.00     0.272 C 
ATOM     17  O   PRO     3       0.973  11.165   7.244  1.00  0.00    -0.269 OA
BRANCH  16  18
ATOM     18  CA  PRO     3      -0.749  11.270   8.874  1.00  0.00     0.165 C 
ATOM     19  N   PRO     3      -1.785  10.214   8.890  1.00  0.00    -0.312 N 
ATOM     20  CD  PRO     3      -2.607  10.340  10.120  1.00  0.00     0.105 C 
ATOM     21  C   ASP     2      -2.024   9.382   7.860  1.00  0.00     0.257 C 
ATOM     22  CG  PRO     3      -2.153  11.667  10.746  1.00  0.00     0.027 C 
ATOM     23  CB  PRO     3      -0.698  11.797  10.306  1.00  0.00     0.034 C 
ATOM     24  O   ASP     2      -1.521   9.600   6.748  1.00  0.00    -0.270 OA
BRANCH  21  25
ATOM     25  CA  ASP     2      -3.190   8.372   7.954  1.00  0.00     0.195 C 
BRANCH  25  26
ATOM     26  CB  ASP     2      -2.949   7.121   8.839  1.00  0.00     0.132 C 
BRANCH  26  27
ATOM     27  CG  ASP     2      -1.459   6.733   8.827  1.00  0.00     0.188 C 
ATOM     28  OD2 ASP     2      -1.127   5.885   7.960  1.00  0.00    -0.647 OA
ATOM     29  OD1 ASP     2      -0.852   6.791   9.925  1.00  0.00    -0.647 OA
ENDBRANCH  26  27
ENDBRANCH  25  26
BRANCH  25  30
ATOM     30  N   ASP     2      -3.516   7.779   6.646  1.00  0.00    -0.228 NA
ATOM     31  C   TYR     1      -4.456   8.171   5.818  1.00  0.00     0.289 C 
ATOM     32  O   TYR     1      -5.162   9.182   5.893  1.00  0.00    -0.268 OA
BRANCH  31  33
ATOM     33  CA  TYR     1      -4.647   7.191   4.665  1.00  0.00     0.385 C 
ATOM     34  N   TYR     1      -4.021   7.776   3.468  1.00  0.00     0.626 N 
BRANCH  33  35
ATOM     35  CB  TYR     1      -4.000   5.871   5.077  1.00  0.00     0.075 C 
BRANCH  35  36
ATOM     36  CG  TYR     1      -4.916   4.658   4.858  1.00  0.00    -0.019 A 
ATOM     37  CD2 TYR     1      -4.444   3.362   4.994  1.00  0.00    -0.002 A 
ATOM     38  CE2 TYR     1      -5.321   2.289   4.925  1.00  0.00     0.027 A 
ATOM     39  CZ  TYR     1      -6.677   2.532   4.711  1.00  0.00     0.131 A 
ATOM     40  CE1 TYR     1      -7.135   3.826   4.535  1.00  0.00     0.027 A 
ATOM     41  OH  TYR     1      -7.572   1.530   4.826  1.00  0.00    -0.190 OA
ATOM     42  CD1 TYR     1      -6.258   4.898   4.604  1.00  0.00    -0.002 A 
ENDBRANCH  35  36
ENDBRANCH  33  35
ENDBRANCH  31  33
ENDBRANCH  25  30
ENDBRANCH  21  25
ENDBRANCH  16  18
ENDBRANCH   9  15
ENDBRANCH   7   9
ENDBRANCH   5   6
BRANCH   5  43
ATOM     43  CB  TYR     5       3.798   4.589   8.130  1.00  0.00     0.060 C 
BRANCH  43  44
ATOM     44  CG  TYR     5       4.943   5.318   8.852  1.00  0.00    -0.020 A 
ATOM     45  CD2 TYR     5       5.072   5.238  10.233  1.00  0.00    -0.002 A 
ATOM     46  CE2 TYR     5       6.116   5.895  10.877  1.00  0.00     0.027 A 
ATOM     47  CZ  TYR     5       7.032   6.631  10.140  1.00  0.00     0.131 A 
ATOM     48  CE1 TYR     5       6.920   6.701   8.756  1.00  0.00     0.027 A 
ATOM     49  OH  TYR     5       7.963   7.382  10.767  1.00  0.00    -0.190 OA
ATOM     50  CD1 TYR     5       5.867   6.049   8.114  1.00  0.00    -0.002 A 
ENDBRANCH  43  44
ENDBRANCH   5  43
ENDBRANCH   3   5
ENDBRANCH   1   2
BRANCH   1  51
ATOM     51  CB  ARG     6      -0.816   1.585   8.830  1.00  0.00     0.036 C 
BRANCH  51  52
ATOM     52  CG  ARG     6      -1.675   2.422   7.878  1.00  0.00     0.029 C 
BRANCH  52  53
ATOM     53  CD  ARG     6      -3.110   2.503   8.389  1.00  0.00     0.145 C 
BRANCH  53  54
ATOM     54  NE  ARG     6      -3.521   1.233   9.011  1.00  0.00    -0.083 NA
ATOM     55  CZ  ARG     6      -4.762   0.712   8.976  1.00  0.00     0.782 C 
ATOM     56  NH2 ARG     6      -5.047  -0.407   9.646  1.00  0.00     0.063 N 
ATOM     57  NH1 ARG     6      -5.741   1.351   8.345  1.00  0.00     0.063 N 
ENDBRANCH  53  54
ENDBRANCH  52  53
ENDBRANCH  51  52
ENDBRANCH   1  51
BRANCH   1  58
ATOM     58  C   ARG     6       1.044   1.410  10.419  1.00  0.00     0.274 C 
ATOM     59  N   ASN     7       1.773   0.584   9.674  1.00  0.00    -0.228 NA
ATOM     60  O   ARG     6       1.022   1.418  11.651  1.00  0.00    -0.268 OA
BRANCH  59  61
ATOM     61  CA  ASN     7       2.743  -0.378  10.235  1.00  0.00     0.196 C 
BRANCH  61  62
ATOM     62  C   ASN     7       4.103  -0.300   9.513  1.00  0.00     0.275 C 
ATOM     63  N   PHE     8       4.405   0.861   8.912  1.00  0.00    -0.228 NA
ATOM     64  O   ASN     7       4.953  -1.103   9.845  1.00  0.00    -0.268 OA
BRANCH  63  65
ATOM     65  CA  PHE     8       5.694   1.159   8.243  1.00  0.00     0.191 C 
BRANCH  65  66
ATOM     66  CB  PHE     8       5.425   2.145   7.098  1.00  0.00     0.060 C 
BRANCH  66  67
ATOM     67  CG  PHE     8       6.568   2.255   6.071  1.00  0.00    -0.020 A 
ATOM     68  CD1 PHE     8       6.963   1.136   5.351  1.00  0.00    -0.004 A 
ATOM     69  CE1 PHE     8       8.063   1.212   4.498  1.00  0.00    -0.000 A 
ATOM     70  CZ  PHE     8       8.747   2.409   4.361  1.00  0.00    -0.000 A 
ATOM     71  CE2 PHE     8       8.344   3.536   5.071  1.00  0.00    -0.000 A 
ATOM     72  CD2 PHE     8       7.244   3.460   5.925  1.00  0.00    -0.004 A 
ENDBRANCH  66  67
ENDBRANCH  65  66
BRANCH  65  73
ATOM     73  C   PHE     8       6.815   1.664   9.180  1.00  0.00     0.275 C 
ATOM     74  N   TRP     9       8.063   1.340   8.841  1.00  0.00    -0.228 NA
ATOM     75  O   PHE     8       6.550   2.115  10.298  1.00  0.00    -0.268 OA
BRANCH  74  76
ATOM     76  CA  TRP     9       9.240   1.860   9.580  1.00  0.00     0.191 C 
BRANCH  76  77
ATOM     77  CB  TRP     9      10.487   1.073   9.144  1.00  0.00     0.062 C 
BRANCH  77  78
ATOM     78  CG  TRP     9      10.282   0.288   7.849  1.00  0.00     0.001 A 
ATOM     79  CD1 TRP     9       9.715  -0.910   7.743  1.00  0.00     0.095 A 
ATOM     80  NE1 TRP     9       9.963  -1.419   6.543  1.00  0.00    -0.244 NA
ATOM     81  CE2 TRP     9      10.678  -0.557   5.836  1.00  0.00     0.081 A 
ATOM     82  CD2 TRP     9      10.917   0.547   6.639  1.00  0.00     0.015 A 
ATOM     83  CZ2 TRP     9      11.269  -0.628   4.575  1.00  0.00     0.019 A 
ATOM     84  CE3 TRP     9      11.749   1.571   6.210  1.00  0.00     0.001 A 
ATOM     85  CZ3 TRP     9      12.350   1.496   4.958  1.00  0.00     0.000 A 
ATOM     86  CH2 TRP     9      12.090   0.401   4.137  1.00  0.00     0.002 A 
ENDBRANCH  77  78
ENDBRANCH  76  77
BRANCH  76  87
ATOM     87  C   TRP     9       9.456   3.385   9.450  1.00  0.00     0.275 C 
ATOM     88  O   TRP     9       9.282   4.130  10.410  1.00  0.00    -0.268 OA
ATOM     89  N   GLY    10       9.930   3.815   8.282  1.00  0.00    -0.226 NA
BRANCH  89  90
ATOM     90  CA  GLY    10      10.244   5.238   7.976  1.00  0.00     0.218 C 
BRANCH  90  91
ATOM     91  C   GLY    10      11.642   5.730   8.381  1.00  0.00     0.277 C 
ATOM     92  N   CYS    11      12.656   5.058   7.837  1.00  0.00    -0.228 NA
ATOM     93  O   GLY    10      11.777   6.561   9.272  1.00  0.00    -0.268 OA
BRANCH  92  94
ATOM     94  CA  CYS    11      14.098   5.328   8.031  1.00  0.00     0.198 C 
BRANCH  94  95
ATOM     95  C   CYS    11      14.792   5.227   6.659  1.00  0.00     0.275 C 
ATOM     96  O   CYS    11      15.999   5.433   6.585  1.00  0.00    -0.268 OA
ATOM     97  N   GLY    12      13.993   5.115   5.608  1.00  0.00    -0.225 NA
BRANCH  97  98
ATOM     98  CA  GLY    12      14.491   5.023   4.227  1.00  0.00     0.226 C 
BRANCH  98  99
ATOM     99  C   GLY    12      14.251   6.389   3.542  1.00  0.00     0.211 C 
ATOM    100  O1  GLY    12      14.746   6.539   2.396  1.00  0.00    -0.646 OA
ATOM    101  O2  GLY    12      13.561   7.229   4.148  1.00  0.00    -0.646 OA
ENDBRANCH  98  99
ENDBRANCH  97  98
ENDBRANCH  94  95
BRANCH  94 102
ATOM    102  CB  CYS    11      14.726   4.234   8.892  1.00  0.00     0.103 C 
ATOM    103  SG  CYS    11      14.821   2.566   8.137  1.00  0.00    -0.080 SA
ENDBRANCH  94 102
ENDBRANCH  92  94
ENDBRANCH  90  91
ENDBRANCH  89  90
ENDBRANCH  76  87
ENDBRANCH  74  76
ENDBRANCH  65  73
ENDBRANCH  63  65
ENDBRANCH  61  62
BRANCH  61 104
ATOM    104  CB  ASN     7       2.191  -1.809  10.203  1.00  0.00     0.126 C 
BRANCH 104 105
ATOM    105  CG  ASN     7       1.741  -2.361  11.569  1.00  0.00     0.276 C 
ATOM    106  ND2 ASN     7       2.137  -3.579  11.857  1.00  0.00    -0.107 N 
ATOM    107  OD1 ASN     7       0.935  -1.819  12.314  1.00  0.00    -0.269 OA
ENDBRANCH 104 105
ENDBRANCH  61 104
ENDBRANCH  59  61
ENDBRANCH   1  58
TORSDOF 42
ENDMDL
MODEL 8
REMARK VINA RESULT:      -5.3      3.260      9.784
REMARK WARNING: 32 MAX_TORS EXCEEDED!!!
REMARK  42 active torsions:
REMARK  status: ('A' for Active; 'I' for Inactive)
REMARK    1  A    between atoms: CA_2  and  CB_3 
REMARK    2  A    between atoms: CA_2  and  C_11 
REMARK    3  A    between atoms: CB_3  and  CG_4 
REMARK       I    between atoms: C_11  and  N_13 
REMARK    4  A    between atoms: N_13  and  CA_14 
REMARK    5  A    between atoms: CA_14  and  CB_15 
REMARK    6  A    between atoms: CA_14  and  C_19 
REMARK    7  A    between atoms: CB_15  and  CG_16 
REMARK       I    between atoms: C_19  and  N_21 
REMARK    8  A    between atoms: CA_22  and  C_26 
REMARK       I    between atoms: C_26  and  N_28 
REMARK    9  A    between atoms: N_28  and  CA_29 
REMARK   10  A    between atoms: CA_29  and  C_35 
REMARK   11  A    between atoms: CA_29  and  CB_30 
REMARK   12  A    between atoms: CB_30  and  CG_31 
REMARK   13  A    between atoms: CG_31  and  CD_32 
REMARK       I    between atoms: C_35  and  N_37 
REMARK   14  A    between atoms: N_37  and  CA_38 
REMARK   15  A    between atoms: CA_38  and  CB_39 
REMARK   16  A    between atoms: CA_38  and  C_47 
REMARK   17  A    between atoms: CB_39  and  CG_40 
REMARK       I    between atoms: C_47  and  N_49 
REMARK   18  A    between atoms: N_49  and  CA_50 
REMARK   19  A    between atoms: CA_50  and  CB_51 
REMARK   20  A    between atoms: CA_50  and  C_58 
REMARK   21  A    between atoms: CB_51  and  CG_52 
REMARK   22  A    between atoms: CG_52  and  CD_53 
REMARK   23  A    between atoms: CD_53  and  NE_54 
REMARK       I    between atoms: C_58  and  N_60 
REMARK   24  A    between atoms: N_60  and  CA_61 
REMARK   25  A    between atoms: CA_61  and  C_66 
REMARK   26  A    between atoms: CA_61  and  CB_62 
REMARK   27  A    between atoms: CB_62  and  CG_63 
REMARK       I    between atoms: C_66  and  N_68 
REMARK   28  A    between atoms: N_68  and  CA_69 
REMARK   29  A    between atoms: CA_69  and  CB_70 
REMARK   30  A    between atoms: CA_69  and  C_77 
REMARK   31  A    between atoms: CB_70  and  CG_71 
REMARK       I    between atoms: C_77  and  N_79 
REMARK   32  A    between atoms: N_79  and  CA_80 
REMARK   33  A    between atoms: CA_80  and  CB_81 
REMARK   34  A    between atoms: CA_80  and  C_91 
REMARK   35  A    between atoms: CB_81  and  CG_82 
REMARK       I    between atoms: C_91  and  N_93 
REMARK   36  A    between atoms: N_93  and  CA_94 
REMARK   37  A    between atoms: CA_94  and  C_95 
REMARK       I    between atoms: C_95  and  N_97 
REMARK   38  A    between atoms: N_97  and  CA_98 
REMARK   39  A    between atoms: CA_98  and  C_101 
REMARK   40  A    between atoms: CA_98  and  CB_99 
REMARK       I    between atoms: C_101  and  N_103 
REMARK   41  A    between atoms: N_103  and  CA_104 
REMARK   42  A    between atoms: CA_104  and  C_105 
ROOT
ATOM      1  CA  ARG     6       8.423  -1.791   8.923  1.00  0.00     0.186 C 
ENDROOT
BRANCH   1   2
ATOM      2  N   ARG     6       7.234  -0.915   9.045  1.00  0.00    -0.229 NA
ATOM      3  C   TYR     5       6.539  -0.803  10.184  1.00  0.00     0.275 C 
ATOM      4  O   TYR     5       6.860  -1.399  11.213  1.00  0.00    -0.268 OA
BRANCH   3   5
ATOM      5  CA  TYR     5       5.372   0.198  10.197  1.00  0.00     0.191 C 
BRANCH   5   6
ATOM      6  N   TYR     5       4.212  -0.255  11.009  1.00  0.00    -0.228 NA
ATOM      7  C   GLU     4       2.950  -0.256  10.548  1.00  0.00     0.274 C 
ATOM      8  O   GLU     4       2.673  -0.018   9.380  1.00  0.00    -0.268 OA
BRANCH   7   9
ATOM      9  CA  GLU     4       1.892  -0.890  11.475  1.00  0.00     0.187 C 
BRANCH   9  10
ATOM     10  CB  GLU     4       1.412  -2.224  10.882  1.00  0.00     0.045 C 
BRANCH  10  11
ATOM     11  CG  GLU     4       1.936  -3.505  11.569  1.00  0.00     0.100 C 
BRANCH  11  12
ATOM     12  CD  GLU     4       1.088  -4.749  11.311  1.00  0.00     0.185 C 
ATOM     13  OE1 GLU     4       0.574  -4.872  10.169  1.00  0.00    -0.647 OA
ATOM     14  OE2 GLU     4       0.575  -5.295  12.309  1.00  0.00    -0.647 OA
ENDBRANCH  11  12
ENDBRANCH  10  11
ENDBRANCH   9  10
BRANCH   9  15
ATOM     15  N   GLU     4       0.719  -0.023  11.697  1.00  0.00    -0.229 NA
ATOM     16  C   PRO     3      -0.556  -0.287  11.435  1.00  0.00     0.272 C 
ATOM     17  O   PRO     3      -0.999  -1.430  11.312  1.00  0.00    -0.269 OA
BRANCH  16  18
ATOM     18  CA  PRO     3      -1.539   0.833  11.783  1.00  0.00     0.165 C 
ATOM     19  N   PRO     3      -2.459   1.215  10.690  1.00  0.00    -0.312 N 
ATOM     20  CD  PRO     3      -3.816   1.461  11.243  1.00  0.00     0.105 C 
ATOM     21  C   ASP     2      -2.066   1.450   9.425  1.00  0.00     0.257 C 
ATOM     22  CG  PRO     3      -3.618   1.421  12.766  1.00  0.00     0.027 C 
ATOM     23  CB  PRO     3      -2.446   0.463  12.955  1.00  0.00     0.034 C 
ATOM     24  O   ASP     2      -0.861   1.565   9.155  1.00  0.00    -0.270 OA
BRANCH  21  25
ATOM     25  CA  ASP     2      -3.103   1.927   8.383  1.00  0.00     0.195 C 
BRANCH  25  26
ATOM     26  CB  ASP     2      -3.257   1.051   7.113  1.00  0.00     0.132 C 
BRANCH  26  27
ATOM     27  CG  ASP     2      -4.724   0.617   6.934  1.00  0.00     0.188 C 
ATOM     28  OD2 ASP     2      -5.561   1.552   6.865  1.00  0.00    -0.647 OA
ATOM     29  OD1 ASP     2      -5.048  -0.492   7.428  1.00  0.00    -0.647 OA
ENDBRANCH  26  27
ENDBRANCH  25  26
BRANCH  25  30
ATOM     30  N   ASP     2      -2.757   3.244   7.822  1.00  0.00    -0.228 NA
ATOM     31  C   TYR     1      -3.204   4.411   8.224  1.00  0.00     0.289 C 
ATOM     32  O   TYR     1      -3.885   4.661   9.224  1.00  0.00    -0.268 OA
BRANCH  31  33
ATOM     33  CA  TYR     1      -2.803   5.535   7.274  1.00  0.00     0.385 C 
ATOM     34  N   TYR     1      -4.011   5.965   6.550  1.00  0.00     0.626 N 
BRANCH  33  35
ATOM     35  CB  TYR     1      -2.200   6.653   8.120  1.00  0.00     0.075 C 
BRANCH  35  36
ATOM     36  CG  TYR     1      -0.681   6.794   7.934  1.00  0.00    -0.019 A 
ATOM     37  CD2 TYR     1      -0.013   7.953   8.299  1.00  0.00    -0.002 A 
ATOM     38  CE2 TYR     1       1.372   8.005   8.248  1.00  0.00     0.027 A 
ATOM     39  CZ  TYR     1       2.079   6.882   7.820  1.00  0.00     0.131 A 
ATOM     40  CE1 TYR     1       1.404   5.743   7.419  1.00  0.00     0.027 A 
ATOM     41  OH  TYR     1       3.422   6.841   7.939  1.00  0.00    -0.190 OA
ATOM     42  CD1 TYR     1       0.020   5.691   7.470  1.00  0.00    -0.002 A 
ENDBRANCH  35  36
ENDBRANCH  33  35
ENDBRANCH  31  33
ENDBRANCH  25  30
ENDBRANCH  21  25
ENDBRANCH  16  18
ENDBRANCH   9  15
ENDBRANCH   7   9
ENDBRANCH   5   6
BRANCH   5  43
ATOM     43  CB  TYR     5       5.841   1.583  10.673  1.00  0.00     0.060 C 
BRANCH  43  44
ATOM     44  CG  TYR     5       5.904   2.604   9.524  1.00  0.00    -0.020 A 
ATOM     45  CD2 TYR     5       5.664   2.210   8.214  1.00  0.00    -0.002 A 
ATOM     46  CE2 TYR     5       5.717   3.142   7.182  1.00  0.00     0.027 A 
ATOM     47  CZ  TYR     5       6.010   4.468   7.461  1.00  0.00     0.131 A 
ATOM     48  CE1 TYR     5       6.234   4.874   8.771  1.00  0.00     0.027 A 
ATOM     49  OH  TYR     5       6.200   5.349   6.454  1.00  0.00    -0.190 OA
ATOM     50  CD1 TYR     5       6.190   3.936   9.803  1.00  0.00    -0.002 A 
ENDBRANCH  43  44
ENDBRANCH   5  43
ENDBRANCH   3   5
ENDBRANCH   1   2
BRANCH   1  51
ATOM     51  CB  ARG     6       8.128  -3.092   8.183  1.00  0.00     0.036 C 
BRANCH  51  52
ATOM     52  CG  ARG     6       8.237  -4.339   9.064  1.00  0.00     0.029 C 
BRANCH  52  53
ATOM     53  CD  ARG     6       6.968  -4.517   9.892  1.00  0.00     0.145 C 
BRANCH  53  54
ATOM     54  NE  ARG     6       5.766  -4.324   9.064  1.00  0.00    -0.083 NA
ATOM     55  CZ  ARG     6       4.582  -4.940   9.250  1.00  0.00     0.782 C 
ATOM     56  NH2 ARG     6       3.580  -4.756   8.388  1.00  0.00     0.063 N 
ATOM     57  NH1 ARG     6       4.426  -5.807  10.244  1.00  0.00     0.063 N 
ENDBRANCH  53  54
ENDBRANCH  52  53
ENDBRANCH  51  52
ENDBRANCH   1  51
BRANCH   1  58
ATOM     58  C   ARG     6       9.578  -1.113   8.175  1.00  0.00     0.274 C 
ATOM     59  N   ASN     7       9.514  -1.164   6.848  1.00  0.00    -0.228 NA
ATOM     60  O   ARG     6      10.479  -0.577   8.821  1.00  0.00    -0.268 OA
BRANCH  59  61
ATOM     61  CA  ASN     7      10.480  -0.485   5.960  1.00  0.00     0.196 C 
BRANCH  61  62
ATOM     62  C   ASN     7       9.926   0.854   5.437  1.00  0.00     0.275 C 
ATOM     63  N   PHE     8      10.720   1.929   5.556  1.00  0.00    -0.228 NA
ATOM     64  O   ASN     7       9.019   0.801   4.629  1.00  0.00    -0.268 OA
BRANCH  63  65
ATOM     65  CA  PHE     8      10.401   3.281   5.038  1.00  0.00     0.191 C 
BRANCH  65  66
ATOM     66  CB  PHE     8       9.269   3.868   5.892  1.00  0.00     0.060 C 
BRANCH  66  67
ATOM     67  CG  PHE     8       9.582   3.948   7.398  1.00  0.00    -0.020 A 
ATOM     68  CD1 PHE     8       9.492   2.808   8.185  1.00  0.00    -0.004 A 
ATOM     69  CE1 PHE     8       9.676   2.901   9.564  1.00  0.00    -0.000 A 
ATOM     70  CZ  PHE     8       9.964   4.128  10.139  1.00  0.00    -0.000 A 
ATOM     71  CE2 PHE     8      10.069   5.269   9.350  1.00  0.00    -0.000 A 
ATOM     72  CD2 PHE     8       9.884   5.177   7.971  1.00  0.00    -0.004 A 
ENDBRANCH  66  67
ENDBRANCH  65  66
BRANCH  65  73
ATOM     73  C   PHE     8      11.606   4.246   4.946  1.00  0.00     0.275 C 
ATOM     74  N   TRP     9      12.796   3.742   5.275  1.00  0.00    -0.228 NA
ATOM     75  O   PHE     8      11.436   5.461   4.824  1.00  0.00    -0.268 OA
BRANCH  74  76
ATOM     76  CA  TRP     9      14.051   4.517   5.115  1.00  0.00     0.191 C 
BRANCH  76  77
ATOM     77  CB  TRP     9      14.918   4.322   6.370  1.00  0.00     0.062 C 
BRANCH  77  78
ATOM     78  CG  TRP     9      14.147   3.727   7.548  1.00  0.00     0.001 A 
ATOM     79  CD1 TRP     9      13.674   4.401   8.591  1.00  0.00     0.095 A 
ATOM     80  NE1 TRP     9      13.327   3.554   9.552  1.00  0.00    -0.244 NA
ATOM     81  CE2 TRP     9      13.548   2.312   9.148  1.00  0.00     0.081 A 
ATOM     82  CD2 TRP     9      14.087   2.376   7.873  1.00  0.00     0.015 A 
ATOM     83  CZ2 TRP     9      13.443   1.077   9.787  1.00  0.00     0.019 A 
ATOM     84  CE3 TRP     9      14.536   1.230   7.233  1.00  0.00     0.001 A 
ATOM     85  CZ3 TRP     9      14.445  -0.001   7.874  1.00  0.00     0.000 A 
ATOM     86  CH2 TRP     9      13.879  -0.073   9.145  1.00  0.00     0.002 A 
ENDBRANCH  77  78
ENDBRANCH  76  77
BRANCH  76  87
ATOM     87  C   TRP     9      14.839   4.202   3.823  1.00  0.00     0.275 C 
ATOM     88  O   TRP     9      15.221   5.103   3.083  1.00  0.00    -0.268 OA
ATOM     89  N   GLY    10      15.157   2.923   3.625  1.00  0.00    -0.226 NA
BRANCH  89  90
ATOM     90  CA  GLY    10      15.948   2.426   2.466  1.00  0.00     0.218 C 
BRANCH  90  91
ATOM     91  C   GLY    10      15.616   1.008   1.972  1.00  0.00     0.277 C 
ATOM     92  N   CYS    11      16.626   0.142   2.028  1.00  0.00    -0.228 NA
ATOM     93  O   GLY    10      14.550   0.776   1.414  1.00  0.00    -0.268 OA
BRANCH  92  94
ATOM     94  CA  CYS    11      16.586  -1.287   1.641  1.00  0.00     0.198 C 
BRANCH  94  95
ATOM     95  C   CYS    11      16.010  -2.087   2.825  1.00  0.00     0.275 C 
ATOM     96  O   CYS    11      15.006  -2.769   2.652  1.00  0.00    -0.268 OA
ATOM     97  N   GLY    12      16.532  -1.824   4.014  1.00  0.00    -0.225 NA
BRANCH  97  98
ATOM     98  CA  GLY    12      16.087  -2.486   5.250  1.00  0.00     0.226 C 
BRANCH  98  99
ATOM     99  C   GLY    12      17.094  -3.613   5.577  1.00  0.00     0.211 C 
ATOM    100  O1  GLY    12      16.997  -4.669   4.902  1.00  0.00    -0.646 OA
ATOM    101  O2  GLY    12      17.950  -3.391   6.453  1.00  0.00    -0.646 OA
ENDBRANCH  98  99
ENDBRANCH  97  98
ENDBRANCH  94  95
BRANCH  94 102
ATOM    102  CB  CYS    11      18.003  -1.816   1.435  1.00  0.00     0.103 C 
ATOM    103  SG  CYS    11      18.212  -3.634   1.564  1.00  0.00    -0.080 SA
ENDBRANCH  94 102
ENDBRANCH  92  94
ENDBRANCH  90  91
ENDBRANCH  89  90
ENDBRANCH  76  87
ENDBRANCH  74  76
ENDBRANCH  65  73
ENDBRANCH  63  65
ENDBRANCH  61  62
BRANCH  61 104
ATOM    104  CB  ASN     7      10.900  -1.393   4.796  1.00  0.00     0.126 C 
BRANCH 104 105
ATOM    105  CG  ASN     7      11.897  -0.760   3.809  1.00  0.00     0.276 C 
ATOM    106  ND2 ASN     7      13.112  -0.560   4.266  1.00  0.00    -0.107 N 
ATOM    107  OD1 ASN     7      11.605  -0.299   2.713  1.00  0.00    -0.269 OA
ENDBRANCH 104 105
ENDBRANCH  61 104
ENDBRANCH  59  61
ENDBRANCH   1  58
TORSDOF 42
ENDMDL
MODEL 9
REMARK VINA RESULT:      -5.3     18.763     26.377
REMARK WARNING: 32 MAX_TORS EXCEEDED!!!
REMARK  42 active torsions:
REMARK  status: ('A' for Active; 'I' for Inactive)
REMARK    1  A    between atoms: CA_2  and  CB_3 
REMARK    2  A    between atoms: CA_2  and  C_11 
REMARK    3  A    between atoms: CB_3  and  CG_4 
REMARK       I    between atoms: C_11  and  N_13 
REMARK    4  A    between atoms: N_13  and  CA_14 
REMARK    5  A    between atoms: CA_14  and  CB_15 
REMARK    6  A    between atoms: CA_14  and  C_19 
REMARK    7  A    between atoms: CB_15  and  CG_16 
REMARK       I    between atoms: C_19  and  N_21 
REMARK    8  A    between atoms: CA_22  and  C_26 
REMARK       I    between atoms: C_26  and  N_28 
REMARK    9  A    between atoms: N_28  and  CA_29 
REMARK   10  A    between atoms: CA_29  and  C_35 
REMARK   11  A    between atoms: CA_29  and  CB_30 
REMARK   12  A    between atoms: CB_30  and  CG_31 
REMARK   13  A    between atoms: CG_31  and  CD_32 
REMARK       I    between atoms: C_35  and  N_37 
REMARK   14  A    between atoms: N_37  and  CA_38 
REMARK   15  A    between atoms: CA_38  and  CB_39 
REMARK   16  A    between atoms: CA_38  and  C_47 
REMARK   17  A    between atoms: CB_39  and  CG_40 
REMARK       I    between atoms: C_47  and  N_49 
REMARK   18  A    between atoms: N_49  and  CA_50 
REMARK   19  A    between atoms: CA_50  and  CB_51 
REMARK   20  A    between atoms: CA_50  and  C_58 
REMARK   21  A    between atoms: CB_51  and  CG_52 
REMARK   22  A    between atoms: CG_52  and  CD_53 
REMARK   23  A    between atoms: CD_53  and  NE_54 
REMARK       I    between atoms: C_58  and  N_60 
REMARK   24  A    between atoms: N_60  and  CA_61 
REMARK   25  A    between atoms: CA_61  and  C_66 
REMARK   26  A    between atoms: CA_61  and  CB_62 
REMARK   27  A    between atoms: CB_62  and  CG_63 
REMARK       I    between atoms: C_66  and  N_68 
REMARK   28  A    between atoms: N_68  and  CA_69 
REMARK   29  A    between atoms: CA_69  and  CB_70 
REMARK   30  A    between atoms: CA_69  and  C_77 
REMARK   31  A    between atoms: CB_70  and  CG_71 
REMARK       I    between atoms: C_77  and  N_79 
REMARK   32  A    between atoms: N_79  and  CA_80 
REMARK   33  A    between atoms: CA_80  and  CB_81 
REMARK   34  A    between atoms: CA_80  and  C_91 
REMARK   35  A    between atoms: CB_81  and  CG_82 
REMARK       I    between atoms: C_91  and  N_93 
REMARK   36  A    between atoms: N_93  and  CA_94 
REMARK   37  A    between atoms: CA_94  and  C_95 
REMARK       I    between atoms: C_95  and  N_97 
REMARK   38  A    between atoms: N_97  and  CA_98 
REMARK   39  A    between atoms: CA_98  and  C_101 
REMARK   40  A    between atoms: CA_98  and  CB_99 
REMARK       I    between atoms: C_101  and  N_103 
REMARK   41  A    between atoms: N_103  and  CA_104 
REMARK   42  A    between atoms: CA_104  and  C_105 
ROOT
ATOM      1  CA  ARG     6      -3.099 -19.256   7.758  1.00  0.00     0.186 C 
ENDROOT
BRANCH   1   2
ATOM      2  N   ARG     6      -2.633 -19.827   6.473  1.00  0.00    -0.229 NA
ATOM      3  C   TYR     5      -2.690 -21.138   6.206  1.00  0.00     0.275 C 
ATOM      4  O   TYR     5      -3.161 -21.952   7.002  1.00  0.00    -0.268 OA
BRANCH   3   5
ATOM      5  CA  TYR     5      -2.244 -21.589   4.806  1.00  0.00     0.191 C 
BRANCH   5   6
ATOM      6  N   TYR     5      -0.932 -22.286   4.798  1.00  0.00    -0.228 NA
ATOM      7  C   GLU     4       0.240 -21.645   4.938  1.00  0.00     0.274 C 
ATOM      8  O   GLU     4       0.313 -20.456   5.224  1.00  0.00    -0.268 OA
BRANCH   7   9
ATOM      9  CA  GLU     4       1.492 -22.539   5.047  1.00  0.00     0.187 C 
BRANCH   9  10
ATOM     10  CB  GLU     4       1.206 -23.915   4.425  1.00  0.00     0.045 C 
BRANCH  10  11
ATOM     11  CG  GLU     4       1.701 -25.142   5.223  1.00  0.00     0.100 C 
BRANCH  11  12
ATOM     12  CD  GLU     4       2.992 -25.760   4.688  1.00  0.00     0.185 C 
ATOM     13  OE1 GLU     4       4.067 -25.436   5.257  1.00  0.00    -0.647 OA
ATOM     14  OE2 GLU     4       2.983 -26.139   3.500  1.00  0.00    -0.647 OA
ENDBRANCH  11  12
ENDBRANCH  10  11
ENDBRANCH   9  10
BRANCH   9  15
ATOM     15  N   GLU     4       1.948 -22.736   6.437  1.00  0.00    -0.229 NA
ATOM     16  C   PRO     3       2.863 -22.044   7.106  1.00  0.00     0.272 C 
ATOM     17  O   PRO     3       3.207 -20.902   6.797  1.00  0.00    -0.269 OA
BRANCH  16  18
ATOM     18  CA  PRO     3       3.109 -22.506   8.544  1.00  0.00     0.165 C 
ATOM     19  N   PRO     3       1.885 -22.815   9.315  1.00  0.00    -0.312 N 
ATOM     20  CD  PRO     3       2.109 -24.029  10.140  1.00  0.00     0.105 C 
ATOM     21  C   ASP     2       0.806 -22.013   9.364  1.00  0.00     0.257 C 
ATOM     22  CG  PRO     3       3.612 -24.316   9.994  1.00  0.00     0.027 C 
ATOM     23  CB  PRO     3       3.951 -23.778   8.607  1.00  0.00     0.034 C 
ATOM     24  O   ASP     2       0.866 -20.854   8.927  1.00  0.00    -0.270 OA
BRANCH  21  25
ATOM     25  CA  ASP     2      -0.384 -22.396  10.273  1.00  0.00     0.195 C 
BRANCH  25  26
ATOM     26  CB  ASP     2      -1.348 -23.481   9.726  1.00  0.00     0.132 C 
BRANCH  26  27
ATOM     27  CG  ASP     2      -1.848 -24.382  10.871  1.00  0.00     0.188 C 
ATOM     28  OD2 ASP     2      -3.076 -24.300  11.128  1.00  0.00    -0.647 OA
ATOM     29  OD1 ASP     2      -1.024 -24.648  11.781  1.00  0.00    -0.647 OA
ENDBRANCH  26  27
ENDBRANCH  25  26
BRANCH  25  30
ATOM     30  N   ASP     2      -1.289 -21.258  10.510  1.00  0.00    -0.228 NA
ATOM     31  C   TYR     1      -1.777 -20.870  11.665  1.00  0.00     0.289 C 
ATOM     32  O   TYR     1      -1.481 -21.281  12.792  1.00  0.00    -0.268 OA
BRANCH  31  33
ATOM     33  CA  TYR     1      -2.846 -19.795  11.501  1.00  0.00     0.385 C 
ATOM     34  N   TYR     1      -4.076 -20.451  11.026  1.00  0.00     0.626 N 
BRANCH  33  35
ATOM     35  CB  TYR     1      -3.029 -19.124  12.861  1.00  0.00     0.075 C 
BRANCH  35  36
ATOM     36  CG  TYR     1      -3.009 -17.590  12.781  1.00  0.00    -0.019 A 
ATOM     37  CD2 TYR     1      -3.567 -16.914  11.707  1.00  0.00    -0.002 A 
ATOM     38  CE2 TYR     1      -3.656 -15.531  11.724  1.00  0.00     0.027 A 
ATOM     39  CZ  TYR     1      -3.173 -14.831  12.829  1.00  0.00     0.131 A 
ATOM     40  CE1 TYR     1      -2.580 -15.509  13.879  1.00  0.00     0.027 A 
ATOM     41  OH  TYR     1      -3.415 -13.511  12.955  1.00  0.00    -0.190 OA
ATOM     42  CD1 TYR     1      -2.490 -16.893  13.862  1.00  0.00    -0.002 A 
ENDBRANCH  35  36
ENDBRANCH  33  35
ENDBRANCH  31  33
ENDBRANCH  25  30
ENDBRANCH  21  25
ENDBRANCH  16  18
ENDBRANCH   9  15
ENDBRANCH   7   9
ENDBRANCH   5   6
BRANCH   5  43
ATOM     43  CB  TYR     5      -3.315 -22.474   4.147  1.00  0.00     0.060 C 
BRANCH  43  44
ATOM     44  CG  TYR     5      -2.701 -23.582   3.274  1.00  0.00    -0.020 A 
ATOM     45  CD2 TYR     5      -2.395 -23.343   1.940  1.00  0.00    -0.002 A 
ATOM     46  CE2 TYR     5      -1.832 -24.349   1.161  1.00  0.00     0.027 A 
ATOM     47  CZ  TYR     5      -1.576 -25.594   1.715  1.00  0.00     0.131 A 
ATOM     48  CE1 TYR     5      -1.863 -25.835   3.054  1.00  0.00     0.027 A 
ATOM     49  OH  TYR     5      -1.161 -26.615   0.933  1.00  0.00    -0.190 OA
ATOM     50  CD1 TYR     5      -2.435 -24.828   3.831  1.00  0.00    -0.002 A 
ENDBRANCH  43  44
ENDBRANCH   5  43
ENDBRANCH   3   5
ENDBRANCH   1   2
BRANCH   1  51
ATOM     51  CB  ARG     6      -2.183 -18.157   8.286  1.00  0.00     0.036 C 
BRANCH  51  52
ATOM     52  CG  ARG     6      -0.911 -17.965   7.456  1.00  0.00     0.029 C 
BRANCH  52  53
ATOM     53  CD  ARG     6       0.236 -17.489   8.343  1.00  0.00     0.145 C 
BRANCH  53  54
ATOM     54  NE  ARG     6       1.439 -17.204   7.543  1.00  0.00    -0.083 NA
ATOM     55  CZ  ARG     6       2.692 -17.583   7.855  1.00  0.00     0.782 C 
ATOM     56  NH2 ARG     6       3.724 -17.198   7.101  1.00  0.00     0.063 N 
ATOM     57  NH1 ARG     6       2.928 -18.273   8.966  1.00  0.00     0.063 N 
ENDBRANCH  53  54
ENDBRANCH  52  53
ENDBRANCH  51  52
ENDBRANCH   1  51
BRANCH   1  58
ATOM     58  C   ARG     6      -4.502 -18.646   7.656  1.00  0.00     0.274 C 
ATOM     59  N   ASN     7      -4.890 -17.913   8.695  1.00  0.00    -0.228 NA
ATOM     60  O   ARG     6      -5.180 -18.863   6.650  1.00  0.00    -0.268 OA
BRANCH  59  61
ATOM     61  CA  ASN     7      -6.165 -17.167   8.736  1.00  0.00     0.196 C 
BRANCH  61  62
ATOM     62  C   ASN     7      -5.943 -15.653   8.554  1.00  0.00     0.275 C 
ATOM     63  N   PHE     8      -5.259 -15.266   7.467  1.00  0.00    -0.228 NA
ATOM     64  O   ASN     7      -6.695 -14.907   9.151  1.00  0.00    -0.268 OA
BRANCH  63  65
ATOM     65  CA  PHE     8      -5.018 -13.856   7.075  1.00  0.00     0.191 C 
BRANCH  65  66
ATOM     66  CB  PHE     8      -3.526 -13.695   6.753  1.00  0.00     0.060 C 
BRANCH  66  67
ATOM     67  CG  PHE     8      -2.631 -13.457   7.984  1.00  0.00    -0.020 A 
ATOM     68  CD1 PHE     8      -1.605 -14.344   8.276  1.00  0.00    -0.004 A 
ATOM     69  CE1 PHE     8      -0.861 -14.186   9.446  1.00  0.00    -0.000 A 
ATOM     70  CZ  PHE     8      -1.143 -13.134  10.302  1.00  0.00    -0.000 A 
ATOM     71  CE2 PHE     8      -2.163 -12.236  10.005  1.00  0.00    -0.000 A 
ATOM     72  CD2 PHE     8      -2.906 -12.394   8.836  1.00  0.00    -0.004 A 
ENDBRANCH  66  67
ENDBRANCH  65  66
BRANCH  65  73
ATOM     73  C   PHE     8      -5.909 -13.337   5.924  1.00  0.00     0.275 C 
ATOM     74  N   TRP     9      -7.122 -13.883   5.820  1.00  0.00    -0.228 NA
ATOM     75  O   PHE     8      -5.434 -12.654   5.013  1.00  0.00    -0.268 OA
BRANCH  74  76
ATOM     76  CA  TRP     9      -8.125 -13.395   4.841  1.00  0.00     0.191 C 
BRANCH  76  77
ATOM     77  CB  TRP     9      -8.940 -14.592   4.327  1.00  0.00     0.062 C 
BRANCH  77  78
ATOM     78  CG  TRP     9      -8.928 -15.784   5.283  1.00  0.00     0.001 A 
ATOM     79  CD1 TRP     9      -7.945 -16.670   5.414  1.00  0.00     0.095 A 
ATOM     80  NE1 TRP     9      -8.377 -17.721   6.100  1.00  0.00    -0.244 NA
ATOM     81  CE2 TRP     9      -9.641 -17.533   6.448  1.00  0.00     0.081 A 
ATOM     82  CD2 TRP     9     -10.040 -16.310   5.933  1.00  0.00     0.015 A 
ATOM     83  CZ2 TRP     9     -10.578 -18.346   7.087  1.00  0.00     0.019 A 
ATOM     84  CE3 TRP     9     -11.359 -15.893   6.033  1.00  0.00     0.001 A 
ATOM     85  CZ3 TRP     9     -12.297 -16.707   6.658  1.00  0.00     0.000 A 
ATOM     86  CH2 TRP     9     -11.895 -17.926   7.200  1.00  0.00     0.002 A 
ENDBRANCH  77  78
ENDBRANCH  76  77
BRANCH  76  87
ATOM     87  C   TRP     9      -9.040 -12.266   5.369  1.00  0.00     0.275 C 
ATOM     88  O   TRP     9      -8.639 -11.108   5.432  1.00  0.00    -0.268 OA
ATOM     89  N   GLY    10     -10.296 -12.610   5.649  1.00  0.00    -0.226 NA
BRANCH  89  90
ATOM     90  CA  GLY    10     -11.339 -11.661   6.126  1.00  0.00     0.218 C 
BRANCH  90  91
ATOM     91  C   GLY    10     -11.835 -11.861   7.567  1.00  0.00     0.277 C 
ATOM     92  N   CYS    11     -11.498 -13.024   8.123  1.00  0.00    -0.228 NA
ATOM     93  O   GLY    10     -12.623 -11.069   8.071  1.00  0.00    -0.268 OA
BRANCH  92  94
ATOM     94  CA  CYS    11     -11.820 -13.471   9.497  1.00  0.00     0.198 C 
BRANCH  94  95
ATOM     95  C   CYS    11     -10.631 -14.302  10.020  1.00  0.00     0.275 C 
ATOM     96  O   CYS    11     -10.273 -15.291   9.389  1.00  0.00    -0.268 OA
ATOM     97  N   GLY    12     -10.200 -14.000  11.235  1.00  0.00    -0.225 NA
BRANCH  97  98
ATOM     98  CA  GLY    12      -9.087 -14.705  11.889  1.00  0.00     0.226 C 
BRANCH  98  99
ATOM     99  C   GLY    12      -8.018 -13.656  12.275  1.00  0.00     0.211 C 
ATOM    100  O1  GLY    12      -6.832 -14.065  12.359  1.00  0.00    -0.646 OA
ATOM    101  O2  GLY    12      -8.392 -12.481  12.440  1.00  0.00    -0.646 OA
ENDBRANCH  98  99
ENDBRANCH  97  98
ENDBRANCH  94  95
BRANCH  94 102
ATOM    102  CB  CYS    11     -13.011 -14.425   9.474  1.00  0.00     0.103 C 
ATOM    103  SG  CYS    11     -13.905 -14.641  11.061  1.00  0.00    -0.080 SA
ENDBRANCH  94 102
ENDBRANCH  92  94
ENDBRANCH  90  91
ENDBRANCH  89  90
ENDBRANCH  76  87
ENDBRANCH  74  76
ENDBRANCH  65  73
ENDBRANCH  63  65
ENDBRANCH  61  62
BRANCH  61 104
ATOM    104  CB  ASN     7      -6.936 -17.454  10.031  1.00  0.00     0.126 C 
BRANCH 104 105
ATOM    105  CG  ASN     7      -7.968 -18.592   9.931  1.00  0.00     0.276 C 
ATOM    106  ND2 ASN     7      -9.167 -18.327  10.398  1.00  0.00    -0.107 N 
ATOM    107  OD1 ASN     7      -7.714 -19.744   9.601  1.00  0.00    -0.269 OA
ENDBRANCH 104 105
ENDBRANCH  61 104
ENDBRANCH  59  61
ENDBRANCH   1  58
TORSDOF 42
ENDMDL
