MODEL 1
REMARK VINA RESULT:      -3.2      0.000      0.000
REMARK WARNING: 32 MAX_TORS EXCEEDED!!!
REMARK  42 active torsions:
REMARK  status: ('A' for Active; 'I' for Inactive)
REMARK    1  A    between atoms: CA_2  and  CB_3 
REMARK    2  A    between atoms: CA_2  and  C_11 
REMARK    3  A    between atoms: CB_3  and  CG_4 
REMARK       I    between atoms: C_11  and  N_13 
REMARK    4  A    between atoms: N_13  and  CA_14 
REMARK    5  A    between atoms: CA_14  and  CB_15 
REMARK    6  A    between atoms: CA_14  and  C_19 
REMARK    7  A    between atoms: CB_15  and  CG_16 
REMARK       I    between atoms: C_19  and  N_21 
REMARK    8  A    between atoms: CA_22  and  C_26 
REMARK       I    between atoms: C_26  and  N_28 
REMARK    9  A    between atoms: N_28  and  CA_29 
REMARK   10  A    between atoms: CA_29  and  C_35 
REMARK   11  A    between atoms: CA_29  and  CB_30 
REMARK   12  A    between atoms: CB_30  and  CG_31 
REMARK   13  A    between atoms: CG_31  and  CD_32 
REMARK       I    between atoms: C_35  and  N_37 
REMARK   14  A    between atoms: N_37  and  CA_38 
REMARK   15  A    between atoms: CA_38  and  CB_39 
REMARK   16  A    between atoms: CA_38  and  C_47 
REMARK   17  A    between atoms: CB_39  and  CG_40 
REMARK       I    between atoms: C_47  and  N_49 
REMARK   18  A    between atoms: N_49  and  CA_50 
REMARK   19  A    between atoms: CA_50  and  CB_51 
REMARK   20  A    between atoms: CA_50  and  C_58 
REMARK   21  A    between atoms: CB_51  and  CG_52 
REMARK   22  A    between atoms: CG_52  and  CD_53 
REMARK   23  A    between atoms: CD_53  and  NE_54 
REMARK       I    between atoms: C_58  and  N_60 
REMARK   24  A    between atoms: N_60  and  CA_61 
REMARK   25  A    between atoms: CA_61  and  C_66 
REMARK   26  A    between atoms: CA_61  and  CB_62 
REMARK   27  A    between atoms: CB_62  and  CG_63 
REMARK       I    between atoms: C_66  and  N_68 
REMARK   28  A    between atoms: N_68  and  CA_69 
REMARK   29  A    between atoms: CA_69  and  CB_70 
REMARK   30  A    between atoms: CA_69  and  C_77 
REMARK   31  A    between atoms: CB_70  and  CG_71 
REMARK       I    between atoms: C_77  and  N_79 
REMARK   32  A    between atoms: N_79  and  CA_80 
REMARK   33  A    between atoms: CA_80  and  CB_81 
REMARK   34  A    between atoms: CA_80  and  C_91 
REMARK   35  A    between atoms: CB_81  and  CG_82 
REMARK       I    between atoms: C_91  and  N_93 
REMARK   36  A    between atoms: N_93  and  CA_94 
REMARK   37  A    between atoms: CA_94  and  C_95 
REMARK       I    between atoms: C_95  and  N_97 
REMARK   38  A    between atoms: N_97  and  CA_98 
REMARK   39  A    between atoms: CA_98  and  C_101 
REMARK   40  A    between atoms: CA_98  and  CB_99 
REMARK       I    between atoms: C_101  and  N_103 
REMARK   41  A    between atoms: N_103  and  CA_104 
REMARK   42  A    between atoms: CA_104  and  C_105 
ROOT
ATOM      1  CA  ARG     6      -5.524 -21.069   7.900  1.00  0.00     0.186 C 
ENDROOT
BRANCH   1   2
ATOM      2  N   ARG     6      -4.137 -21.585   7.969  1.00  0.00    -0.229 NA
ATOM      3  C   TYR     5      -3.076 -20.840   7.630  1.00  0.00     0.275 C 
ATOM      4  O   TYR     5      -3.183 -19.669   7.268  1.00  0.00    -0.268 OA
BRANCH   3   5
ATOM      5  CA  TYR     5      -1.687 -21.473   7.819  1.00  0.00     0.191 C 
BRANCH   5   6
ATOM      6  N   TYR     5      -0.737 -20.605   8.561  1.00  0.00    -0.228 NA
ATOM      7  C   GLU     4      -1.056 -19.978   9.705  1.00  0.00     0.274 C 
ATOM      8  O   GLU     4      -2.107 -20.182  10.300  1.00  0.00    -0.268 OA
BRANCH   7   9
ATOM      9  CA  GLU     4       0.095 -19.234  10.413  1.00  0.00     0.187 C 
BRANCH   9  10
ATOM     10  CB  GLU     4       0.199 -17.799   9.872  1.00  0.00     0.045 C 
BRANCH  10  11
ATOM     11  CG  GLU     4      -1.055 -17.244   9.161  1.00  0.00     0.100 C 
BRANCH  11  12
ATOM     12  CD  GLU     4      -1.726 -16.078   9.887  1.00  0.00     0.185 C 
ATOM     13  OE1 GLU     4      -2.097 -15.099   9.189  1.00  0.00    -0.647 OA
ATOM     14  OE2 GLU     4      -1.452 -15.939  11.096  1.00  0.00    -0.647 OA
ENDBRANCH  11  12
ENDBRANCH  10  11
ENDBRANCH   9  10
BRANCH   9  15
ATOM     15  N   GLU     4       1.404 -19.895  10.249  1.00  0.00    -0.229 NA
ATOM     16  C   PRO     3       2.136 -20.002   9.147  1.00  0.00     0.272 C 
ATOM     17  O   PRO     3       2.015 -19.250   8.179  1.00  0.00    -0.269 OA
BRANCH  16  18
ATOM     18  CA  PRO     3       3.456 -20.758   9.311  1.00  0.00     0.165 C 
ATOM     19  N   PRO     3       4.559 -19.963   9.894  1.00  0.00    -0.312 N 
ATOM     20  CD  PRO     3       5.325 -20.801  10.852  1.00  0.00     0.105 C 
ATOM     21  C   ASP     2       4.891 -18.725   9.485  1.00  0.00     0.257 C 
ATOM     22  CG  PRO     3       4.761 -22.216  10.654  1.00  0.00     0.027 C 
ATOM     23  CB  PRO     3       3.317 -21.975  10.223  1.00  0.00     0.034 C 
ATOM     24  O   ASP     2       4.415 -18.263   8.437  1.00  0.00    -0.270 OA
BRANCH  21  25
ATOM     25  CA  ASP     2       6.117 -18.022  10.109  1.00  0.00     0.195 C 
BRANCH  25  26
ATOM     26  CB  ASP     2       6.037 -16.478  10.235  1.00  0.00     0.132 C 
BRANCH  26  27
ATOM     27  CG  ASP     2       5.732 -15.842   8.865  1.00  0.00     0.188 C 
ATOM     28  OD2 ASP     2       6.667 -15.889   8.026  1.00  0.00    -0.647 OA
ATOM     29  OD1 ASP     2       4.916 -14.887   8.856  1.00  0.00    -0.647 OA
ENDBRANCH  26  27
ENDBRANCH  25  26
BRANCH  25  30
ATOM     30  N   ASP     2       7.334 -18.212   9.301  1.00  0.00    -0.228 NA
ATOM     31  C   TYR     1       8.336 -19.016   9.569  1.00  0.00     0.289 C 
ATOM     32  O   TYR     1       8.411 -19.868  10.461  1.00  0.00    -0.268 OA
BRANCH  31  33
ATOM     33  CA  TYR     1       9.517 -18.791   8.629  1.00  0.00     0.385 C 
ATOM     34  N   TYR     1       9.088 -19.159   7.270  1.00  0.00     0.626 N 
BRANCH  33  35
ATOM     35  CB  TYR     1       9.912 -17.320   8.740  1.00  0.00     0.075 C 
BRANCH  35  36
ATOM     36  CG  TYR     1      11.408 -17.079   8.487  1.00  0.00    -0.019 A 
ATOM     37  CD2 TYR     1      12.374 -17.936   8.992  1.00  0.00    -0.002 A 
ATOM     38  CE2 TYR     1      13.704 -17.774   8.638  1.00  0.00     0.027 A 
ATOM     39  CZ  TYR     1      14.057 -16.737   7.775  1.00  0.00     0.131 A 
ATOM     40  CE1 TYR     1      13.094 -15.861   7.307  1.00  0.00     0.027 A 
ATOM     41  OH  TYR     1      15.305 -16.671   7.268  1.00  0.00    -0.190 OA
ATOM     42  CD1 TYR     1      11.763 -16.023   7.662  1.00  0.00    -0.002 A 
ENDBRANCH  35  36
ENDBRANCH  33  35
ENDBRANCH  31  33
ENDBRANCH  25  30
ENDBRANCH  21  25
ENDBRANCH  16  18
ENDBRANCH   9  15
ENDBRANCH   7   9
ENDBRANCH   5   6
BRANCH   5  43
ATOM     43  CB  TYR     5      -1.797 -22.844   8.506  1.00  0.00     0.060 C 
BRANCH  43  44
ATOM     44  CG  TYR     5      -0.592 -23.749   8.198  1.00  0.00    -0.020 A 
ATOM     45  CD2 TYR     5       0.623 -23.200   7.810  1.00  0.00    -0.002 A 
ATOM     46  CE2 TYR     5       1.710 -24.026   7.541  1.00  0.00     0.027 A 
ATOM     47  CZ  TYR     5       1.582 -25.402   7.660  1.00  0.00     0.131 A 
ATOM     48  CE1 TYR     5       0.374 -25.958   8.065  1.00  0.00     0.027 A 
ATOM     49  OH  TYR     5       2.586 -26.216   7.268  1.00  0.00    -0.190 OA
ATOM     50  CD1 TYR     5      -0.717 -25.128   8.326  1.00  0.00    -0.002 A 
ENDBRANCH  43  44
ENDBRANCH   5  43
ENDBRANCH   3   5
ENDBRANCH   1   2
BRANCH   1  51
ATOM     51  CB  ARG     6      -6.495 -22.060   7.268  1.00  0.00     0.036 C 
BRANCH  51  52
ATOM     52  CG  ARG     6      -6.259 -23.511   7.695  1.00  0.00     0.029 C 
BRANCH  52  53
ATOM     53  CD  ARG     6      -7.405 -23.998   8.577  1.00  0.00     0.145 C 
BRANCH  53  54
ATOM     54  NE  ARG     6      -7.849 -25.342   8.170  1.00  0.00    -0.083 NA
ATOM     55  CZ  ARG     6      -7.228 -26.497   8.478  1.00  0.00     0.782 C 
ATOM     56  NH2 ARG     6      -7.671 -27.656   7.987  1.00  0.00     0.063 N 
ATOM     57  NH1 ARG     6      -6.117 -26.487   9.205  1.00  0.00     0.063 N 
ENDBRANCH  53  54
ENDBRANCH  52  53
ENDBRANCH  51  52
ENDBRANCH   1  51
BRANCH   1  58
ATOM     58  C   ARG     6      -6.090 -20.721   9.283  1.00  0.00     0.274 C 
ATOM     59  N   ASN     7      -6.883 -19.655   9.330  1.00  0.00    -0.228 NA
ATOM     60  O   ARG     6      -5.788 -21.422  10.250  1.00  0.00    -0.268 OA
BRANCH  59  61
ATOM     61  CA  ASN     7      -7.597 -19.224  10.550  1.00  0.00     0.196 C 
BRANCH  61  62
ATOM     62  C   ASN     7      -9.012 -18.705  10.225  1.00  0.00     0.275 C 
ATOM     63  N   PHE     8      -9.103 -17.466   9.719  1.00  0.00    -0.228 NA
ATOM     64  O   ASN     7      -9.886 -19.536  10.074  1.00  0.00    -0.268 OA
BRANCH  63  65
ATOM     65  CA  PHE     8     -10.361 -16.825   9.266  1.00  0.00     0.191 C 
BRANCH  65  66
ATOM     66  CB  PHE     8     -11.286 -16.669  10.481  1.00  0.00     0.060 C 
BRANCH  66  67
ATOM     67  CG  PHE     8     -12.771 -16.461  10.128  1.00  0.00    -0.020 A 
ATOM     68  CD1 PHE     8     -13.581 -15.702  10.961  1.00  0.00    -0.004 A 
ATOM     69  CE1 PHE     8     -14.946 -15.598  10.696  1.00  0.00    -0.000 A 
ATOM     70  CZ  PHE     8     -15.483 -16.240   9.592  1.00  0.00    -0.000 A 
ATOM     71  CE2 PHE     8     -14.671 -16.990   8.748  1.00  0.00    -0.000 A 
ATOM     72  CD2 PHE     8     -13.306 -17.094   9.013  1.00  0.00    -0.004 A 
ENDBRANCH  66  67
ENDBRANCH  65  66
BRANCH  65  73
ATOM     73  C   PHE     8     -10.179 -15.488   8.512  1.00  0.00     0.275 C 
ATOM     74  N   TRP     9      -9.826 -14.434   9.250  1.00  0.00    -0.228 NA
ATOM     75  O   PHE     8     -10.581 -15.354   7.354  1.00  0.00    -0.268 OA
BRANCH  74  76
ATOM     76  CA  TRP     9      -9.497 -13.122   8.641  1.00  0.00     0.191 C 
BRANCH  76  77
ATOM     77  CB  TRP     9      -8.672 -13.359   7.366  1.00  0.00     0.062 C 
BRANCH  77  78
ATOM     78  CG  TRP     9      -7.165 -13.392   7.622  1.00  0.00     0.001 A 
ATOM     79  CD1 TRP     9      -6.403 -14.481   7.655  1.00  0.00     0.095 A 
ATOM     80  NE1 TRP     9      -5.223 -14.186   8.187  1.00  0.00    -0.244 NA
ATOM     81  CE2 TRP     9      -5.184 -12.897   8.491  1.00  0.00     0.081 A 
ATOM     82  CD2 TRP     9      -6.414 -12.351   8.159  1.00  0.00     0.015 A 
ATOM     83  CZ2 TRP     9      -4.236 -12.106   9.139  1.00  0.00     0.019 A 
ATOM     84  CE3 TRP     9      -6.717 -11.035   8.476  1.00  0.00     0.001 A 
ATOM     85  CZ3 TRP     9      -5.777 -10.248   9.134  1.00  0.00     0.000 A 
ATOM     86  CH2 TRP     9      -4.530 -10.785   9.446  1.00  0.00     0.002 A 
ENDBRANCH  77  78
ENDBRANCH  76  77
BRANCH  76  87
ATOM     87  C   TRP     9     -10.720 -12.217   8.368  1.00  0.00     0.275 C 
ATOM     88  O   TRP     9     -11.507 -12.478   7.464  1.00  0.00    -0.268 OA
ATOM     89  N   GLY    10     -10.914 -11.216   9.226  1.00  0.00    -0.226 NA
BRANCH  89  90
ATOM     90  CA  GLY    10     -12.056 -10.263   9.158  1.00  0.00     0.218 C 
BRANCH  90  91
ATOM     91  C   GLY    10     -11.717  -8.819   8.757  1.00  0.00     0.277 C 
ATOM     92  N   CYS    11     -11.638  -7.957   9.770  1.00  0.00    -0.228 NA
ATOM     93  O   GLY    10     -11.703  -8.486   7.577  1.00  0.00    -0.268 OA
BRANCH  92  94
ATOM     94  CA  CYS    11     -11.307  -6.517   9.678  1.00  0.00     0.198 C 
BRANCH  94  95
ATOM     95  C   CYS    11      -9.892  -6.314  10.255  1.00  0.00     0.275 C 
ATOM     96  O   CYS    11      -9.470  -7.105  11.091  1.00  0.00    -0.268 OA
ATOM     97  N   GLY    12      -9.297  -5.171   9.947  1.00  0.00    -0.225 NA
BRANCH  97  98
ATOM     98  CA  GLY    12      -7.953  -4.812  10.427  1.00  0.00     0.226 C 
BRANCH  98  99
ATOM     99  C   GLY    12      -7.879  -3.271  10.533  1.00  0.00     0.211 C 
ATOM    100  O1  GLY    12      -6.743  -2.750  10.403  1.00  0.00    -0.646 OA
ATOM    101  O2  GLY    12      -8.945  -2.650  10.704  1.00  0.00    -0.646 OA
ENDBRANCH  98  99
ENDBRANCH  97  98
ENDBRANCH  94  95
BRANCH  94 102
ATOM    102  CB  CYS    11     -12.238  -5.706  10.577  1.00  0.00     0.103 C 
ATOM    103  SG  CYS    11     -13.591  -6.639  11.391  1.00  0.00    -0.080 SA
ENDBRANCH  94 102
ENDBRANCH  92  94
ENDBRANCH  90  91
ENDBRANCH  89  90
ENDBRANCH  76  87
ENDBRANCH  74  76
ENDBRANCH  65  73
ENDBRANCH  63  65
ENDBRANCH  61  62
BRANCH  61 104
ATOM    104  CB  ASN     7      -6.794 -18.170  11.322  1.00  0.00     0.126 C 
BRANCH 104 105
ATOM    105  CG  ASN     7      -5.824 -17.338  10.463  1.00  0.00     0.276 C 
ATOM    106  ND2 ASN     7      -4.709 -16.967  11.049  1.00  0.00    -0.107 N 
ATOM    107  OD1 ASN     7      -6.082 -16.878   9.358  1.00  0.00    -0.269 OA
ENDBRANCH 104 105
ENDBRANCH  61 104
ENDBRANCH  59  61
ENDBRANCH   1  58
TORSDOF 42
ENDMDL
MODEL 2
REMARK VINA RESULT:      -3.1      4.572     18.660
REMARK WARNING: 32 MAX_TORS EXCEEDED!!!
REMARK  42 active torsions:
REMARK  status: ('A' for Active; 'I' for Inactive)
REMARK    1  A    between atoms: CA_2  and  CB_3 
REMARK    2  A    between atoms: CA_2  and  C_11 
REMARK    3  A    between atoms: CB_3  and  CG_4 
REMARK       I    between atoms: C_11  and  N_13 
REMARK    4  A    between atoms: N_13  and  CA_14 
REMARK    5  A    between atoms: CA_14  and  CB_15 
REMARK    6  A    between atoms: CA_14  and  C_19 
REMARK    7  A    between atoms: CB_15  and  CG_16 
REMARK       I    between atoms: C_19  and  N_21 
REMARK    8  A    between atoms: CA_22  and  C_26 
REMARK       I    between atoms: C_26  and  N_28 
REMARK    9  A    between atoms: N_28  and  CA_29 
REMARK   10  A    between atoms: CA_29  and  C_35 
REMARK   11  A    between atoms: CA_29  and  CB_30 
REMARK   12  A    between atoms: CB_30  and  CG_31 
REMARK   13  A    between atoms: CG_31  and  CD_32 
REMARK       I    between atoms: C_35  and  N_37 
REMARK   14  A    between atoms: N_37  and  CA_38 
REMARK   15  A    between atoms: CA_38  and  CB_39 
REMARK   16  A    between atoms: CA_38  and  C_47 
REMARK   17  A    between atoms: CB_39  and  CG_40 
REMARK       I    between atoms: C_47  and  N_49 
REMARK   18  A    between atoms: N_49  and  CA_50 
REMARK   19  A    between atoms: CA_50  and  CB_51 
REMARK   20  A    between atoms: CA_50  and  C_58 
REMARK   21  A    between atoms: CB_51  and  CG_52 
REMARK   22  A    between atoms: CG_52  and  CD_53 
REMARK   23  A    between atoms: CD_53  and  NE_54 
REMARK       I    between atoms: C_58  and  N_60 
REMARK   24  A    between atoms: N_60  and  CA_61 
REMARK   25  A    between atoms: CA_61  and  C_66 
REMARK   26  A    between atoms: CA_61  and  CB_62 
REMARK   27  A    between atoms: CB_62  and  CG_63 
REMARK       I    between atoms: C_66  and  N_68 
REMARK   28  A    between atoms: N_68  and  CA_69 
REMARK   29  A    between atoms: CA_69  and  CB_70 
REMARK   30  A    between atoms: CA_69  and  C_77 
REMARK   31  A    between atoms: CB_70  and  CG_71 
REMARK       I    between atoms: C_77  and  N_79 
REMARK   32  A    between atoms: N_79  and  CA_80 
REMARK   33  A    between atoms: CA_80  and  CB_81 
REMARK   34  A    between atoms: CA_80  and  C_91 
REMARK   35  A    between atoms: CB_81  and  CG_82 
REMARK       I    between atoms: C_91  and  N_93 
REMARK   36  A    between atoms: N_93  and  CA_94 
REMARK   37  A    between atoms: CA_94  and  C_95 
REMARK       I    between atoms: C_95  and  N_97 
REMARK   38  A    between atoms: N_97  and  CA_98 
REMARK   39  A    between atoms: CA_98  and  C_101 
REMARK   40  A    between atoms: CA_98  and  CB_99 
REMARK       I    between atoms: C_101  and  N_103 
REMARK   41  A    between atoms: N_103  and  CA_104 
REMARK   42  A    between atoms: CA_104  and  C_105 
ROOT
ATOM      1  CA  ARG     6      -6.943 -12.929   9.443  1.00  0.00     0.186 C 
ENDROOT
BRANCH   1   2
ATOM      2  N   ARG     6      -8.194 -13.412  10.073  1.00  0.00    -0.229 NA
ATOM      3  C   TYR     5      -9.009 -14.289   9.472  1.00  0.00     0.275 C 
ATOM      4  O   TYR     5      -8.756 -14.774   8.369  1.00  0.00    -0.268 OA
BRANCH   3   5
ATOM      5  CA  TYR     5     -10.236 -14.764  10.267  1.00  0.00     0.191 C 
BRANCH   5   6
ATOM      6  N   TYR     5     -11.420 -15.048   9.416  1.00  0.00    -0.228 NA
ATOM      7  C   GLU     4     -12.641 -14.547   9.666  1.00  0.00     0.274 C 
ATOM      8  O   GLU     4     -12.845 -13.707  10.533  1.00  0.00    -0.268 OA
BRANCH   7   9
ATOM      9  CA  GLU     4     -13.720 -14.830   8.602  1.00  0.00     0.187 C 
BRANCH   9  10
ATOM     10  CB  GLU     4     -13.550 -13.866   7.417  1.00  0.00     0.045 C 
BRANCH  10  11
ATOM     11  CG  GLU     4     -12.295 -12.965   7.444  1.00  0.00     0.100 C 
BRANCH  11  12
ATOM     12  CD  GLU     4     -12.547 -11.551   7.966  1.00  0.00     0.185 C 
ATOM     13  OE1 GLU     4     -11.611 -10.993   8.596  1.00  0.00    -0.647 OA
ATOM     14  OE2 GLU     4     -13.736 -11.229   8.163  1.00  0.00    -0.647 OA
ENDBRANCH  11  12
ENDBRANCH  10  11
ENDBRANCH   9  10
BRANCH   9  15
ATOM     15  N   GLU     4     -15.096 -14.703   9.119  1.00  0.00    -0.229 NA
ATOM     16  C   PRO     3     -16.153 -14.171   8.516  1.00  0.00     0.272 C 
ATOM     17  O   PRO     3     -16.239 -14.038   7.294  1.00  0.00    -0.269 OA
BRANCH  16  18
ATOM     18  CA  PRO     3     -17.448 -14.191   9.330  1.00  0.00     0.165 C 
ATOM     19  N   PRO     3     -18.320 -13.012   9.139  1.00  0.00    -0.312 N 
ATOM     20  CD  PRO     3     -19.740 -13.445   9.084  1.00  0.00     0.105 C 
ATOM     21  C   ASP     2     -17.883 -11.740   9.173  1.00  0.00     0.257 C 
ATOM     22  CG  PRO     3     -19.699 -14.931   9.473  1.00  0.00     0.027 C 
ATOM     23  CB  PRO     3     -18.326 -15.394   8.993  1.00  0.00     0.034 C 
ATOM     24  O   ASP     2     -16.741 -11.481   9.583  1.00  0.00    -0.270 OA
BRANCH  21  25
ATOM     25  CA  ASP     2     -18.899 -10.583   9.047  1.00  0.00     0.195 C 
BRANCH  25  26
ATOM     26  CB  ASP     2     -19.629 -10.452   7.685  1.00  0.00     0.132 C 
BRANCH  26  27
ATOM     27  CG  ASP     2     -20.878  -9.562   7.827  1.00  0.00     0.188 C 
ATOM     28  OD2 ASP     2     -21.981 -10.160   7.744  1.00  0.00    -0.647 OA
ATOM     29  OD1 ASP     2     -20.769  -8.371   7.443  1.00  0.00    -0.647 OA
ENDBRANCH  26  27
ENDBRANCH  25  26
BRANCH  25  30
ATOM     30  N   ASP     2     -18.258  -9.265   9.192  1.00  0.00    -0.228 NA
ATOM     31  C   TYR     1     -17.202  -8.830   8.544  1.00  0.00     0.289 C 
ATOM     32  O   TYR     1     -16.616  -9.366   7.598  1.00  0.00    -0.268 OA
BRANCH  31  33
ATOM     33  CA  TYR     1     -16.691  -7.507   9.106  1.00  0.00     0.385 C 
ATOM     34  N   TYR     1     -15.969  -7.798  10.356  1.00  0.00     0.626 N 
BRANCH  33  35
ATOM     35  CB  TYR     1     -15.792  -6.878   8.045  1.00  0.00     0.075 C 
BRANCH  35  36
ATOM     36  CG  TYR     1     -16.056  -5.377   7.847  1.00  0.00    -0.019 A 
ATOM     37  CD2 TYR     1     -17.249  -4.794   8.247  1.00  0.00    -0.002 A 
ATOM     38  CE2 TYR     1     -17.409  -3.418   8.181  1.00  0.00     0.027 A 
ATOM     39  CZ  TYR     1     -16.360  -2.633   7.704  1.00  0.00     0.131 A 
ATOM     40  CE1 TYR     1     -15.188  -3.225   7.268  1.00  0.00     0.027 A 
ATOM     41  OH  TYR     1     -16.418  -1.290   7.805  1.00  0.00    -0.190 OA
ATOM     42  CD1 TYR     1     -15.028  -4.601   7.333  1.00  0.00    -0.002 A 
ENDBRANCH  35  36
ENDBRANCH  33  35
ENDBRANCH  31  33
ENDBRANCH  25  30
ENDBRANCH  21  25
ENDBRANCH  16  18
ENDBRANCH   9  15
ENDBRANCH   7   9
ENDBRANCH   5   6
BRANCH   5  43
ATOM     43  CB  TYR     5      -9.893 -15.996  11.122  1.00  0.00     0.060 C 
BRANCH  43  44
ATOM     44  CG  TYR     5      -9.263 -17.126  10.291  1.00  0.00    -0.020 A 
ATOM     45  CD2 TYR     5      -7.961 -17.542  10.535  1.00  0.00    -0.002 A 
ATOM     46  CE2 TYR     5      -7.402 -18.571   9.783  1.00  0.00     0.027 A 
ATOM     47  CZ  TYR     5      -8.146 -19.184   8.786  1.00  0.00     0.131 A 
ATOM     48  CE1 TYR     5      -9.457 -18.786   8.548  1.00  0.00     0.027 A 
ATOM     49  OH  TYR     5      -7.568 -20.084   7.962  1.00  0.00    -0.190 OA
ATOM     50  CD1 TYR     5     -10.011 -17.748   9.297  1.00  0.00    -0.002 A 
ENDBRANCH  43  44
ENDBRANCH   5  43
ENDBRANCH   3   5
ENDBRANCH   1   2
BRANCH   1  51
ATOM     51  CB  ARG     6      -6.831 -11.408   9.436  1.00  0.00     0.036 C 
BRANCH  51  52
ATOM     52  CG  ARG     6      -5.635 -10.883   8.638  1.00  0.00     0.029 C 
BRANCH  52  53
ATOM     53  CD  ARG     6      -5.600  -9.358   8.672  1.00  0.00     0.145 C 
BRANCH  53  54
ATOM     54  NE  ARG     6      -6.827  -8.789   8.091  1.00  0.00    -0.083 NA
ATOM     55  CZ  ARG     6      -7.135  -7.479   8.043  1.00  0.00     0.782 C 
ATOM     56  NH2 ARG     6      -8.315  -7.076   7.568  1.00  0.00     0.063 N 
ATOM     57  NH1 ARG     6      -6.302  -6.576   8.550  1.00  0.00     0.063 N 
ENDBRANCH  53  54
ENDBRANCH  52  53
ENDBRANCH  51  52
ENDBRANCH   1  51
BRANCH   1  58
ATOM     58  C   ARG     6      -5.688 -13.458  10.148  1.00  0.00     0.274 C 
ATOM     59  N   ASN     7      -4.796 -14.059   9.366  1.00  0.00    -0.228 NA
ATOM     60  O   ARG     6      -5.575 -13.309  11.366  1.00  0.00    -0.268 OA
BRANCH  59  61
ATOM     61  CA  ASN     7      -3.486 -14.544   9.847  1.00  0.00     0.196 C 
BRANCH  61  62
ATOM     62  C   ASN     7      -3.482 -16.074  10.034  1.00  0.00     0.275 C 
ATOM     63  N   PHE     8      -2.836 -16.797   9.108  1.00  0.00    -0.228 NA
ATOM     64  O   ASN     7      -3.703 -16.495  11.153  1.00  0.00    -0.268 OA
BRANCH  63  65
ATOM     65  CA  PHE     8      -2.648 -18.268   9.159  1.00  0.00     0.191 C 
BRANCH  65  66
ATOM     66  CB  PHE     8      -3.900 -18.933   8.569  1.00  0.00     0.060 C 
BRANCH  66  67
ATOM     67  CG  PHE     8      -3.813 -20.467   8.459  1.00  0.00    -0.020 A 
ATOM     68  CD1 PHE     8      -4.289 -21.108   7.323  1.00  0.00    -0.004 A 
ATOM     69  CE1 PHE     8      -4.304 -22.501   7.268  1.00  0.00    -0.000 A 
ATOM     70  CZ  PHE     8      -3.829 -23.238   8.340  1.00  0.00    -0.000 A 
ATOM     71  CE2 PHE     8      -3.338 -22.597   9.474  1.00  0.00    -0.000 A 
ATOM     72  CD2 PHE     8      -3.323 -21.204   9.529  1.00  0.00    -0.004 A 
ENDBRANCH  66  67
ENDBRANCH  65  66
BRANCH  65  73
ATOM     73  C   PHE     8      -1.356 -18.784   8.487  1.00  0.00     0.275 C 
ATOM     74  N   TRP     9      -0.249 -18.758   9.231  1.00  0.00    -0.228 NA
ATOM     75  O   PHE     8      -1.305 -18.966   7.268  1.00  0.00    -0.268 OA
BRANCH  74  76
ATOM     76  CA  TRP     9       1.032 -19.337   8.757  1.00  0.00     0.191 C 
BRANCH  76  77
ATOM     77  CB  TRP     9       2.185 -18.714   9.561  1.00  0.00     0.062 C 
BRANCH  77  78
ATOM     78  CG  TRP     9       3.479 -18.585   8.757  1.00  0.00     0.001 A 
ATOM     79  CD1 TRP     9       4.186 -19.591   8.250  1.00  0.00     0.095 A 
ATOM     80  NE1 TRP     9       5.383 -19.154   7.878  1.00  0.00    -0.244 NA
ATOM     81  CE2 TRP     9       5.474 -17.854   8.116  1.00  0.00     0.081 A 
ATOM     82  CD2 TRP     9       4.280 -17.450   8.693  1.00  0.00     0.015 A 
ATOM     83  CZ2 TRP     9       6.521 -16.941   7.997  1.00  0.00     0.019 A 
ATOM     84  CE3 TRP     9       4.122 -16.155   9.166  1.00  0.00     0.001 A 
ATOM     85  CZ3 TRP     9       5.170 -15.247   9.060  1.00  0.00     0.000 A 
ATOM     86  CH2 TRP     9       6.362 -15.642   8.457  1.00  0.00     0.002 A 
ENDBRANCH  77  78
ENDBRANCH  76  77
BRANCH  76  87
ATOM     87  C   TRP     9       1.088 -20.881   8.784  1.00  0.00     0.275 C 
ATOM     88  O   TRP     9       1.835 -21.498   8.030  1.00  0.00    -0.268 OA
ATOM     89  N   GLY    10       0.363 -21.479   9.728  1.00  0.00    -0.226 NA
BRANCH  89  90
ATOM     90  CA  GLY    10       0.318 -22.951   9.944  1.00  0.00     0.218 C 
BRANCH  90  91
ATOM     91  C   GLY    10       0.382 -23.828   8.682  1.00  0.00     0.277 C 
ATOM     92  N   CYS    11       1.425 -24.654   8.623  1.00  0.00    -0.228 NA
ATOM     93  O   GLY    10      -0.385 -23.631   7.747  1.00  0.00    -0.268 OA
BRANCH  92  94
ATOM     94  CA  CYS    11       1.724 -25.621   7.543  1.00  0.00     0.198 C 
BRANCH  94  95
ATOM     95  C   CYS    11       1.362 -27.031   8.049  1.00  0.00     0.275 C 
ATOM     96  O   CYS    11       2.251 -27.866   8.175  1.00  0.00    -0.268 OA
ATOM     97  N   GLY    12       0.068 -27.307   8.128  1.00  0.00    -0.225 NA
BRANCH  97  98
ATOM     98  CA  GLY    12      -0.448 -28.609   8.577  1.00  0.00     0.226 C 
BRANCH  98  99
ATOM     99  C   GLY    12      -1.993 -28.555   8.521  1.00  0.00     0.211 C 
ATOM    100  O1  GLY    12      -2.594 -28.466   9.622  1.00  0.00    -0.646 OA
ATOM    101  O2  GLY    12      -2.534 -28.568   7.400  1.00  0.00    -0.646 OA
ENDBRANCH  98  99
ENDBRANCH  97  98
ENDBRANCH  94  95
BRANCH  94 102
ATOM    102  CB  CYS    11       3.225 -25.655   7.268  1.00  0.00     0.103 C 
ATOM    103  SG  CYS    11       4.311 -25.109   8.641  1.00  0.00    -0.080 SA
ENDBRANCH  94 102
ENDBRANCH  92  94
ENDBRANCH  90  91
ENDBRANCH  89  90
ENDBRANCH  76  87
ENDBRANCH  74  76
ENDBRANCH  65  73
ENDBRANCH  63  65
ENDBRANCH  61  62
BRANCH  61 104
ATOM    104  CB  ASN     7      -3.072 -13.835  11.142  1.00  0.00     0.126 C 
BRANCH 104 105
ATOM    105  CG  ASN     7      -1.957 -12.785  10.978  1.00  0.00     0.276 C 
ATOM    106  ND2 ASN     7      -0.726 -13.241  11.017  1.00  0.00    -0.107 N 
ATOM    107  OD1 ASN     7      -2.128 -11.573  10.971  1.00  0.00    -0.269 OA
ENDBRANCH 104 105
ENDBRANCH  61 104
ENDBRANCH  59  61
ENDBRANCH   1  58
TORSDOF 42
ENDMDL
MODEL 3
REMARK VINA RESULT:      -3.1      1.807      2.412
REMARK WARNING: 32 MAX_TORS EXCEEDED!!!
REMARK  42 active torsions:
REMARK  status: ('A' for Active; 'I' for Inactive)
REMARK    1  A    between atoms: CA_2  and  CB_3 
REMARK    2  A    between atoms: CA_2  and  C_11 
REMARK    3  A    between atoms: CB_3  and  CG_4 
REMARK       I    between atoms: C_11  and  N_13 
REMARK    4  A    between atoms: N_13  and  CA_14 
REMARK    5  A    between atoms: CA_14  and  CB_15 
REMARK    6  A    between atoms: CA_14  and  C_19 
REMARK    7  A    between atoms: CB_15  and  CG_16 
REMARK       I    between atoms: C_19  and  N_21 
REMARK    8  A    between atoms: CA_22  and  C_26 
REMARK       I    between atoms: C_26  and  N_28 
REMARK    9  A    between atoms: N_28  and  CA_29 
REMARK   10  A    between atoms: CA_29  and  C_35 
REMARK   11  A    between atoms: CA_29  and  CB_30 
REMARK   12  A    between atoms: CB_30  and  CG_31 
REMARK   13  A    between atoms: CG_31  and  CD_32 
REMARK       I    between atoms: C_35  and  N_37 
REMARK   14  A    between atoms: N_37  and  CA_38 
REMARK   15  A    between atoms: CA_38  and  CB_39 
REMARK   16  A    between atoms: CA_38  and  C_47 
REMARK   17  A    between atoms: CB_39  and  CG_40 
REMARK       I    between atoms: C_47  and  N_49 
REMARK   18  A    between atoms: N_49  and  CA_50 
REMARK   19  A    between atoms: CA_50  and  CB_51 
REMARK   20  A    between atoms: CA_50  and  C_58 
REMARK   21  A    between atoms: CB_51  and  CG_52 
REMARK   22  A    between atoms: CG_52  and  CD_53 
REMARK   23  A    between atoms: CD_53  and  NE_54 
REMARK       I    between atoms: C_58  and  N_60 
REMARK   24  A    between atoms: N_60  and  CA_61 
REMARK   25  A    between atoms: CA_61  and  C_66 
REMARK   26  A    between atoms: CA_61  and  CB_62 
REMARK   27  A    between atoms: CB_62  and  CG_63 
REMARK       I    between atoms: C_66  and  N_68 
REMARK   28  A    between atoms: N_68  and  CA_69 
REMARK   29  A    between atoms: CA_69  and  CB_70 
REMARK   30  A    between atoms: CA_69  and  C_77 
REMARK   31  A    between atoms: CB_70  and  CG_71 
REMARK       I    between atoms: C_77  and  N_79 
REMARK   32  A    between atoms: N_79  and  CA_80 
REMARK   33  A    between atoms: CA_80  and  CB_81 
REMARK   34  A    between atoms: CA_80  and  C_91 
REMARK   35  A    between atoms: CB_81  and  CG_82 
REMARK       I    between atoms: C_91  and  N_93 
REMARK   36  A    between atoms: N_93  and  CA_94 
REMARK   37  A    between atoms: CA_94  and  C_95 
REMARK       I    between atoms: C_95  and  N_97 
REMARK   38  A    between atoms: N_97  and  CA_98 
REMARK   39  A    between atoms: CA_98  and  C_101 
REMARK   40  A    between atoms: CA_98  and  CB_99 
REMARK       I    between atoms: C_101  and  N_103 
REMARK   41  A    between atoms: N_103  and  CA_104 
REMARK   42  A    between atoms: CA_104  and  C_105 
ROOT
ATOM      1  CA  ARG     6      -6.993 -20.477   7.968  1.00  0.00     0.186 C 
ENDROOT
BRANCH   1   2
ATOM      2  N   ARG     6      -5.696 -21.188   8.053  1.00  0.00    -0.229 NA
ATOM      3  C   TYR     5      -4.523 -20.567   7.873  1.00  0.00     0.275 C 
ATOM      4  O   TYR     5      -4.445 -19.358   7.653  1.00  0.00    -0.268 OA
BRANCH   3   5
ATOM      5  CA  TYR     5      -3.250 -21.407   8.063  1.00  0.00     0.191 C 
BRANCH   5   6
ATOM      6  N   TYR     5      -2.283 -20.809   9.019  1.00  0.00    -0.228 NA
ATOM      7  C   GLU     4      -2.639 -20.343  10.228  1.00  0.00     0.274 C 
ATOM      8  O   GLU     4      -3.760 -20.501  10.692  1.00  0.00    -0.268 OA
BRANCH   7   9
ATOM      9  CA  GLU     4      -1.485 -19.887  11.144  1.00  0.00     0.187 C 
BRANCH   9  10
ATOM     10  CB  GLU     4      -1.256 -18.376  10.982  1.00  0.00     0.045 C 
BRANCH  10  11
ATOM     11  CG  GLU     4       0.136 -17.847  11.392  1.00  0.00     0.100 C 
BRANCH  11  12
ATOM     12  CD  GLU     4       0.594 -16.612  10.618  1.00  0.00     0.185 C 
ATOM     13  OE1 GLU     4      -0.023 -15.535  10.830  1.00  0.00    -0.647 OA
ATOM     14  OE2 GLU     4       1.180 -16.814   9.535  1.00  0.00    -0.647 OA
ENDBRANCH  11  12
ENDBRANCH  10  11
ENDBRANCH   9  10
BRANCH   9  15
ATOM     15  N   GLU     4      -0.215 -20.588  10.874  1.00  0.00    -0.229 NA
ATOM     16  C   PRO     3       0.436 -20.690   9.721  1.00  0.00     0.272 C 
ATOM     17  O   PRO     3       0.275 -19.910   8.782  1.00  0.00    -0.269 OA
BRANCH  16  18
ATOM     18  CA  PRO     3       1.737 -21.494   9.775  1.00  0.00     0.165 C 
ATOM     19  N   PRO     3       2.949 -20.696  10.059  1.00  0.00    -0.312 N 
ATOM     20  CD  PRO     3       3.833 -21.445  10.988  1.00  0.00     0.105 C 
ATOM     21  C   ASP     2       3.253 -19.543   9.435  1.00  0.00     0.257 C 
ATOM     22  CG  PRO     3       3.193 -22.839  11.080  1.00  0.00     0.027 C 
ATOM     23  CB  PRO     3       1.707 -22.572  10.856  1.00  0.00     0.034 C 
ATOM     24  O   ASP     2       2.626 -19.195   8.423  1.00  0.00    -0.270 OA
BRANCH  21  25
ATOM     25  CA  ASP     2       4.591 -18.838   9.751  1.00  0.00     0.195 C 
BRANCH  25  26
ATOM     26  CB  ASP     2       4.522 -17.309   9.999  1.00  0.00     0.132 C 
BRANCH  26  27
ATOM     27  CG  ASP     2       5.734 -16.605   9.360  1.00  0.00     0.188 C 
ATOM     28  OD2 ASP     2       6.754 -16.515  10.090  1.00  0.00    -0.647 OA
ATOM     29  OD1 ASP     2       5.486 -15.723   8.501  1.00  0.00    -0.647 OA
ENDBRANCH  26  27
ENDBRANCH  25  26
BRANCH  25  30
ATOM     30  N   ASP     2       5.546 -18.936   8.635  1.00  0.00    -0.228 NA
ATOM     31  C   TYR     1       6.670 -19.613   8.621  1.00  0.00     0.289 C 
ATOM     32  O   TYR     1       7.092 -20.406   9.470  1.00  0.00    -0.268 OA
BRANCH  31  33
ATOM     33  CA  TYR     1       7.506 -19.310   7.381  1.00  0.00     0.385 C 
ATOM     34  N   TYR     1       7.645 -17.847   7.279  1.00  0.00     0.626 N 
BRANCH  33  35
ATOM     35  CB  TYR     1       8.849 -20.014   7.553  1.00  0.00     0.075 C 
BRANCH  35  36
ATOM     36  CG  TYR     1       9.919 -19.120   8.198  1.00  0.00    -0.019 A 
ATOM     37  CD2 TYR     1      10.898 -18.501   7.437  1.00  0.00    -0.002 A 
ATOM     38  CE2 TYR     1      11.767 -17.593   8.024  1.00  0.00     0.027 A 
ATOM     39  CZ  TYR     1      11.646 -17.318   9.385  1.00  0.00     0.131 A 
ATOM     40  CE1 TYR     1      10.693 -17.970  10.147  1.00  0.00     0.027 A 
ATOM     41  OH  TYR     1      12.348 -16.308   9.938  1.00  0.00    -0.190 OA
ATOM     42  CD1 TYR     1       9.824 -18.878   9.561  1.00  0.00    -0.002 A 
ENDBRANCH  35  36
ENDBRANCH  33  35
ENDBRANCH  31  33
ENDBRANCH  25  30
ENDBRANCH  21  25
ENDBRANCH  16  18
ENDBRANCH   9  15
ENDBRANCH   7   9
ENDBRANCH   5   6
BRANCH   5  43
ATOM     43  CB  TYR     5      -3.597 -22.843   8.491  1.00  0.00     0.060 C 
BRANCH  43  44
ATOM     44  CG  TYR     5      -2.343 -23.704   8.717  1.00  0.00    -0.020 A 
ATOM     45  CD2 TYR     5      -2.238 -24.522   9.834  1.00  0.00    -0.002 A 
ATOM     46  CE2 TYR     5      -1.103 -25.303  10.026  1.00  0.00     0.027 A 
ATOM     47  CZ  TYR     5      -0.072 -25.266   9.100  1.00  0.00     0.131 A 
ATOM     48  CE1 TYR     5      -0.176 -24.464   7.969  1.00  0.00     0.027 A 
ATOM     49  OH  TYR     5       1.089 -25.912   9.347  1.00  0.00    -0.190 OA
ATOM     50  CD1 TYR     5      -1.312 -23.675   7.784  1.00  0.00    -0.002 A 
ENDBRANCH  43  44
ENDBRANCH   5  43
ENDBRANCH   3   5
ENDBRANCH   1   2
BRANCH   1  51
ATOM     51  CB  ARG     6      -8.086 -21.312   7.307  1.00  0.00     0.036 C 
BRANCH  51  52
ATOM     52  CG  ARG     6      -8.335 -22.655   7.997  1.00  0.00     0.029 C 
BRANCH  52  53
ATOM     53  CD  ARG     6      -9.830 -22.871   8.214  1.00  0.00     0.145 C 
BRANCH  53  54
ATOM     54  NE  ARG     6     -10.603 -21.699   7.772  1.00  0.00    -0.083 NA
ATOM     55  CZ  ARG     6     -11.919 -21.507   7.979  1.00  0.00     0.782 C 
ATOM     56  NH2 ARG     6     -12.539 -20.445   7.461  1.00  0.00     0.063 N 
ATOM     57  NH1 ARG     6     -12.635 -22.418   8.629  1.00  0.00     0.063 N 
ENDBRANCH  53  54
ENDBRANCH  52  53
ENDBRANCH  51  52
ENDBRANCH   1  51
BRANCH   1  58
ATOM     58  C   ARG     6      -7.528 -20.065   9.345  1.00  0.00     0.274 C 
ATOM     59  N   ASN     7      -8.153 -18.891   9.393  1.00  0.00    -0.228 NA
ATOM     60  O   ARG     6      -7.355 -20.815  10.306  1.00  0.00    -0.268 OA
BRANCH  59  61
ATOM     61  CA  ASN     7      -8.819 -18.373  10.606  1.00  0.00     0.196 C 
BRANCH  61  62
ATOM     62  C   ASN     7     -10.232 -17.842  10.294  1.00  0.00     0.275 C 
ATOM     63  N   PHE     8     -10.315 -16.616   9.757  1.00  0.00    -0.228 NA
ATOM     64  O   ASN     7     -11.120 -18.665  10.182  1.00  0.00    -0.268 OA
BRANCH  63  65
ATOM     65  CA  PHE     8     -11.573 -15.969   9.310  1.00  0.00     0.191 C 
BRANCH  65  66
ATOM     66  CB  PHE     8     -12.485 -15.795  10.533  1.00  0.00     0.060 C 
BRANCH  66  67
ATOM     67  CG  PHE     8     -13.919 -16.323  10.338  1.00  0.00    -0.020 A 
ATOM     68  CD1 PHE     8     -14.143 -17.445   9.553  1.00  0.00    -0.004 A 
ATOM     69  CE1 PHE     8     -15.448 -17.862   9.294  1.00  0.00    -0.000 A 
ATOM     70  CZ  PHE     8     -16.514 -17.161   9.836  1.00  0.00    -0.000 A 
ATOM     71  CE2 PHE     8     -16.291 -16.044  10.634  1.00  0.00    -0.000 A 
ATOM     72  CD2 PHE     8     -14.986 -15.628  10.893  1.00  0.00    -0.004 A 
ENDBRANCH  66  67
ENDBRANCH  65  66
BRANCH  65  73
ATOM     73  C   PHE     8     -11.388 -14.641   8.542  1.00  0.00     0.275 C 
ATOM     74  N   TRP     9     -10.915 -13.611   9.245  1.00  0.00    -0.228 NA
ATOM     75  O   PHE     8     -11.885 -14.481   7.425  1.00  0.00    -0.268 OA
BRANCH  74  76
ATOM     76  CA  TRP     9     -10.572 -12.315   8.608  1.00  0.00     0.191 C 
BRANCH  76  77
ATOM     77  CB  TRP     9      -9.861 -12.591   7.273  1.00  0.00     0.062 C 
BRANCH  77  78
ATOM     78  CG  TRP     9      -8.338 -12.522   7.378  1.00  0.00     0.001 A 
ATOM     79  CD1 TRP     9      -7.530 -13.530   7.695  1.00  0.00     0.095 A 
ATOM     80  NE1 TRP     9      -6.322 -13.063   7.981  1.00  0.00    -0.244 NA
ATOM     81  CE2 TRP     9      -6.310 -11.746   7.838  1.00  0.00     0.081 A 
ATOM     82  CD2 TRP     9      -7.586 -11.355   7.465  1.00  0.00     0.015 A 
ATOM     83  CZ2 TRP     9      -5.342 -10.775   8.092  1.00  0.00     0.019 A 
ATOM     84  CE3 TRP     9      -7.914 -10.011   7.357  1.00  0.00     0.001 A 
ATOM     85  CZ3 TRP     9      -6.953  -9.041   7.623  1.00  0.00     0.000 A 
ATOM     86  CH2 TRP     9      -5.662  -9.431   7.972  1.00  0.00     0.002 A 
ENDBRANCH  77  78
ENDBRANCH  76  77
BRANCH  76  87
ATOM     87  C   TRP     9     -11.768 -11.352   8.428  1.00  0.00     0.275 C 
ATOM     88  O   TRP     9     -12.615 -11.555   7.563  1.00  0.00    -0.268 OA
ATOM     89  N   GLY    10     -11.871 -10.369   9.321  1.00  0.00    -0.226 NA
BRANCH  89  90
ATOM     90  CA  GLY    10     -12.974  -9.369   9.343  1.00  0.00     0.218 C 
BRANCH  90  91
ATOM     91  C   GLY    10     -12.692  -8.028   8.646  1.00  0.00     0.277 C 
ATOM     92  N   CYS    11     -12.007  -7.147   9.374  1.00  0.00    -0.228 NA
ATOM     93  O   GLY    10     -13.221  -7.759   7.573  1.00  0.00    -0.268 OA
BRANCH  92  94
ATOM     94  CA  CYS    11     -11.579  -5.795   8.951  1.00  0.00     0.198 C 
BRANCH  94  95
ATOM     95  C   CYS    11     -10.045  -5.719   9.075  1.00  0.00     0.275 C 
ATOM     96  O   CYS    11      -9.422  -6.726   9.391  1.00  0.00    -0.268 OA
ATOM     97  N   GLY    12      -9.516  -4.505   9.022  1.00  0.00    -0.225 NA
BRANCH  97  98
ATOM     98  CA  GLY    12      -8.072  -4.253   9.140  1.00  0.00     0.226 C 
BRANCH  98  99
ATOM     99  C   GLY    12      -7.738  -4.080  10.640  1.00  0.00     0.211 C 
ATOM    100  O1  GLY    12      -8.587  -3.473  11.341  1.00  0.00    -0.646 OA
ATOM    101  O2  GLY    12      -6.678  -4.580  11.060  1.00  0.00    -0.646 OA
ENDBRANCH  98  99
ENDBRANCH  97  98
ENDBRANCH  94  95
BRANCH  94 102
ATOM    102  CB  CYS    11     -12.123  -4.745   9.916  1.00  0.00     0.103 C 
ATOM    103  SG  CYS    11     -13.881  -4.931  10.406  1.00  0.00    -0.080 SA
ENDBRANCH  94 102
ENDBRANCH  92  94
ENDBRANCH  90  91
ENDBRANCH  89  90
ENDBRANCH  76  87
ENDBRANCH  74  76
ENDBRANCH  65  73
ENDBRANCH  63  65
ENDBRANCH  61  62
BRANCH  61 104
ATOM    104  CB  ASN     7      -7.970 -17.293  11.289  1.00  0.00     0.126 C 
BRANCH 104 105
ATOM    105  CG  ASN     7      -6.561 -17.106  10.695  1.00  0.00     0.276 C 
ATOM    106  ND2 ASN     7      -5.604 -17.816  11.247  1.00  0.00    -0.107 N 
ATOM    107  OD1 ASN     7      -6.253 -16.251   9.874  1.00  0.00    -0.269 OA
ENDBRANCH 104 105
ENDBRANCH  61 104
ENDBRANCH  59  61
ENDBRANCH   1  58
TORSDOF 42
ENDMDL
MODEL 4
REMARK VINA RESULT:      -2.7      4.994     19.447
REMARK WARNING: 32 MAX_TORS EXCEEDED!!!
REMARK  42 active torsions:
REMARK  status: ('A' for Active; 'I' for Inactive)
REMARK    1  A    between atoms: CA_2  and  CB_3 
REMARK    2  A    between atoms: CA_2  and  C_11 
REMARK    3  A    between atoms: CB_3  and  CG_4 
REMARK       I    between atoms: C_11  and  N_13 
REMARK    4  A    between atoms: N_13  and  CA_14 
REMARK    5  A    between atoms: CA_14  and  CB_15 
REMARK    6  A    between atoms: CA_14  and  C_19 
REMARK    7  A    between atoms: CB_15  and  CG_16 
REMARK       I    between atoms: C_19  and  N_21 
REMARK    8  A    between atoms: CA_22  and  C_26 
REMARK       I    between atoms: C_26  and  N_28 
REMARK    9  A    between atoms: N_28  and  CA_29 
REMARK   10  A    between atoms: CA_29  and  C_35 
REMARK   11  A    between atoms: CA_29  and  CB_30 
REMARK   12  A    between atoms: CB_30  and  CG_31 
REMARK   13  A    between atoms: CG_31  and  CD_32 
REMARK       I    between atoms: C_35  and  N_37 
REMARK   14  A    between atoms: N_37  and  CA_38 
REMARK   15  A    between atoms: CA_38  and  CB_39 
REMARK   16  A    between atoms: CA_38  and  C_47 
REMARK   17  A    between atoms: CB_39  and  CG_40 
REMARK       I    between atoms: C_47  and  N_49 
REMARK   18  A    between atoms: N_49  and  CA_50 
REMARK   19  A    between atoms: CA_50  and  CB_51 
REMARK   20  A    between atoms: CA_50  and  C_58 
REMARK   21  A    between atoms: CB_51  and  CG_52 
REMARK   22  A    between atoms: CG_52  and  CD_53 
REMARK   23  A    between atoms: CD_53  and  NE_54 
REMARK       I    between atoms: C_58  and  N_60 
REMARK   24  A    between atoms: N_60  and  CA_61 
REMARK   25  A    between atoms: CA_61  and  C_66 
REMARK   26  A    between atoms: CA_61  and  CB_62 
REMARK   27  A    between atoms: CB_62  and  CG_63 
REMARK       I    between atoms: C_66  and  N_68 
REMARK   28  A    between atoms: N_68  and  CA_69 
REMARK   29  A    between atoms: CA_69  and  CB_70 
REMARK   30  A    between atoms: CA_69  and  C_77 
REMARK   31  A    between atoms: CB_70  and  CG_71 
REMARK       I    between atoms: C_77  and  N_79 
REMARK   32  A    between atoms: N_79  and  CA_80 
REMARK   33  A    between atoms: CA_80  and  CB_81 
REMARK   34  A    between atoms: CA_80  and  C_91 
REMARK   35  A    between atoms: CB_81  and  CG_82 
REMARK       I    between atoms: C_91  and  N_93 
REMARK   36  A    between atoms: N_93  and  CA_94 
REMARK   37  A    between atoms: CA_94  and  C_95 
REMARK       I    between atoms: C_95  and  N_97 
REMARK   38  A    between atoms: N_97  and  CA_98 
REMARK   39  A    between atoms: CA_98  and  C_101 
REMARK   40  A    between atoms: CA_98  and  CB_99 
REMARK       I    between atoms: C_101  and  N_103 
REMARK   41  A    between atoms: N_103  and  CA_104 
REMARK   42  A    between atoms: CA_104  and  C_105 
ROOT
ATOM      1  CA  ARG     6      -7.040 -12.500   9.559  1.00  0.00     0.186 C 
ENDROOT
BRANCH   1   2
ATOM      2  N   ARG     6      -8.173 -13.216  10.189  1.00  0.00    -0.229 NA
ATOM      3  C   TYR     5      -8.822 -14.214   9.575  1.00  0.00     0.275 C 
ATOM      4  O   TYR     5      -8.500 -14.621   8.459  1.00  0.00    -0.268 OA
BRANCH   3   5
ATOM      5  CA  TYR     5      -9.931 -14.922  10.370  1.00  0.00     0.191 C 
BRANCH   5   6
ATOM      6  N   TYR     5     -11.153 -15.195   9.570  1.00  0.00    -0.228 NA
ATOM      7  C   GLU     4     -12.318 -14.557   9.769  1.00  0.00     0.274 C 
ATOM      8  O   GLU     4     -12.428 -13.604  10.529  1.00  0.00    -0.268 OA
BRANCH   7   9
ATOM      9  CA  GLU     4     -13.440 -14.865   8.755  1.00  0.00     0.187 C 
BRANCH   9  10
ATOM     10  CB  GLU     4     -13.118 -14.204   7.405  1.00  0.00     0.045 C 
BRANCH  10  11
ATOM     11  CG  GLU     4     -11.720 -13.559   7.276  1.00  0.00     0.100 C 
BRANCH  11  12
ATOM     12  CD  GLU     4     -11.666 -12.088   7.689  1.00  0.00     0.185 C 
ATOM     13  OE1 GLU     4     -10.569 -11.651   8.125  1.00  0.00    -0.647 OA
ATOM     14  OE2 GLU     4     -12.746 -11.557   8.017  1.00  0.00    -0.647 OA
ENDBRANCH  11  12
ENDBRANCH  10  11
ENDBRANCH   9  10
BRANCH   9  15
ATOM     15  N   GLU     4     -14.769 -14.404   9.200  1.00  0.00    -0.229 NA
ATOM     16  C   PRO     3     -15.526 -13.450   8.671  1.00  0.00     0.272 C 
ATOM     17  O   PRO     3     -15.404 -13.056   7.510  1.00  0.00    -0.269 OA
BRANCH  16  18
ATOM     18  CA  PRO     3     -16.863 -13.211   9.375  1.00  0.00     0.165 C 
ATOM     19  N   PRO     3     -17.540 -11.948   9.012  1.00  0.00    -0.312 N 
ATOM     20  CD  PRO     3     -19.000 -12.185   8.879  1.00  0.00     0.105 C 
ATOM     21  C   ASP     2     -16.926 -10.752   8.971  1.00  0.00     0.257 C 
ATOM     22  CG  PRO     3     -19.201 -13.617   9.397  1.00  0.00     0.027 C 
ATOM     23  CB  PRO     3     -17.880 -14.309   9.074  1.00  0.00     0.034 C 
ATOM     24  O   ASP     2     -15.790 -10.614   9.449  1.00  0.00    -0.270 OA
BRANCH  21  25
ATOM     25  CA  ASP     2     -17.753  -9.483   8.661  1.00  0.00     0.195 C 
BRANCH  25  26
ATOM     26  CB  ASP     2     -17.174  -8.140   9.176  1.00  0.00     0.132 C 
BRANCH  26  27
ATOM     27  CG  ASP     2     -16.293  -7.484   8.096  1.00  0.00     0.188 C 
ATOM     28  OD2 ASP     2     -15.102  -7.885   8.051  1.00  0.00    -0.647 OA
ATOM     29  OD1 ASP     2     -16.580  -6.304   7.774  1.00  0.00    -0.647 OA
ENDBRANCH  26  27
ENDBRANCH  25  26
BRANCH  25  30
ATOM     30  N   ASP     2     -19.082  -9.520   9.295  1.00  0.00    -0.228 NA
ATOM     31  C   TYR     1     -20.075  -8.688   9.085  1.00  0.00     0.289 C 
ATOM     32  O   TYR     1     -20.155  -7.799   8.230  1.00  0.00    -0.268 OA
BRANCH  31  33
ATOM     33  CA  TYR     1     -21.217  -8.900  10.073  1.00  0.00     0.385 C 
ATOM     34  N   TYR     1     -21.393  -7.653  10.835  1.00  0.00     0.626 N 
BRANCH  33  35
ATOM     35  CB  TYR     1     -22.458  -9.270   9.262  1.00  0.00     0.075 C 
BRANCH  35  36
ATOM     36  CG  TYR     1     -23.041 -10.638   9.646  1.00  0.00    -0.019 A 
ATOM     37  CD2 TYR     1     -22.821 -11.192  10.898  1.00  0.00    -0.002 A 
ATOM     38  CE2 TYR     1     -23.468 -12.362  11.267  1.00  0.00     0.027 A 
ATOM     39  CZ  TYR     1     -24.335 -12.974  10.362  1.00  0.00     0.131 A 
ATOM     40  CE1 TYR     1     -24.518 -12.438   9.100  1.00  0.00     0.027 A 
ATOM     41  OH  TYR     1     -25.115 -13.999  10.758  1.00  0.00    -0.190 OA
ATOM     42  CD1 TYR     1     -23.870 -11.268   8.731  1.00  0.00    -0.002 A 
ENDBRANCH  35  36
ENDBRANCH  33  35
ENDBRANCH  31  33
ENDBRANCH  25  30
ENDBRANCH  21  25
ENDBRANCH  16  18
ENDBRANCH   9  15
ENDBRANCH   7   9
ENDBRANCH   5   6
BRANCH   5  43
ATOM     43  CB  TYR     5      -9.410 -16.226  10.999  1.00  0.00     0.060 C 
BRANCH  43  44
ATOM     44  CG  TYR     5      -9.517 -17.421  10.036  1.00  0.00    -0.020 A 
ATOM     45  CD2 TYR     5      -9.063 -17.318   8.728  1.00  0.00    -0.002 A 
ATOM     46  CE2 TYR     5      -9.157 -18.407   7.867  1.00  0.00     0.027 A 
ATOM     47  CZ  TYR     5      -9.706 -19.599   8.314  1.00  0.00     0.131 A 
ATOM     48  CE1 TYR     5     -10.146 -19.716   9.628  1.00  0.00     0.027 A 
ATOM     49  OH  TYR     5      -9.928 -20.613   7.449  1.00  0.00    -0.190 OA
ATOM     50  CD1 TYR     5     -10.059 -18.620  10.486  1.00  0.00    -0.002 A 
ENDBRANCH  43  44
ENDBRANCH   5  43
ENDBRANCH   3   5
ENDBRANCH   1   2
BRANCH   1  51
ATOM     51  CB  ARG     6      -7.163 -10.983   9.667  1.00  0.00     0.036 C 
BRANCH  51  52
ATOM     52  CG  ARG     6      -5.875 -10.235   9.315  1.00  0.00     0.029 C 
BRANCH  52  53
ATOM     53  CD  ARG     6      -6.190  -8.997   8.480  1.00  0.00     0.145 C 
BRANCH  53  54
ATOM     54  NE  ARG     6      -7.600  -8.603   8.633  1.00  0.00    -0.083 NA
ATOM     55  CZ  ARG     6      -8.047  -7.571   9.375  1.00  0.00     0.782 C 
ATOM     56  NH2 ARG     6      -9.356  -7.352   9.511  1.00  0.00     0.063 N 
ATOM     57  NH1 ARG     6      -7.192  -6.811  10.050  1.00  0.00     0.063 N 
ENDBRANCH  53  54
ENDBRANCH  52  53
ENDBRANCH  51  52
ENDBRANCH   1  51
BRANCH   1  58
ATOM     58  C   ARG     6      -5.689 -12.876  10.180  1.00  0.00     0.274 C 
ATOM     59  N   ASN     7      -4.891 -13.618   9.418  1.00  0.00    -0.228 NA
ATOM     60  O   ARG     6      -5.422 -12.488  11.318  1.00  0.00    -0.268 OA
BRANCH  59  61
ATOM     61  CA  ASN     7      -3.516 -13.996   9.806  1.00  0.00     0.196 C 
BRANCH  61  62
ATOM     62  C   ASN     7      -3.413 -15.497  10.141  1.00  0.00     0.275 C 
ATOM     63  N   PHE     8      -2.732 -16.266   9.278  1.00  0.00    -0.228 NA
ATOM     64  O   ASN     7      -3.595 -15.820  11.298  1.00  0.00    -0.268 OA
BRANCH  63  65
ATOM     65  CA  PHE     8      -2.451 -17.710   9.468  1.00  0.00     0.191 C 
BRANCH  65  66
ATOM     66  CB  PHE     8      -3.628 -18.509   8.891  1.00  0.00     0.060 C 
BRANCH  66  67
ATOM     67  CG  PHE     8      -3.409 -20.033   8.861  1.00  0.00    -0.020 A 
ATOM     68  CD1 PHE     8      -3.068 -20.660   7.670  1.00  0.00    -0.004 A 
ATOM     69  CE1 PHE     8      -2.969 -22.050   7.621  1.00  0.00    -0.000 A 
ATOM     70  CZ  PHE     8      -3.197 -22.797   8.765  1.00  0.00    -0.000 A 
ATOM     71  CE2 PHE     8      -3.526 -22.170   9.963  1.00  0.00    -0.000 A 
ATOM     72  CD2 PHE     8      -3.624 -20.780  10.012  1.00  0.00    -0.004 A 
ENDBRANCH  66  67
ENDBRANCH  65  66
BRANCH  65  73
ATOM     73  C   PHE     8      -1.099 -18.193   8.898  1.00  0.00     0.275 C 
ATOM     74  N   TRP     9      -0.106 -18.349   9.775  1.00  0.00    -0.228 NA
ATOM     75  O   PHE     8      -0.885 -18.186   7.683  1.00  0.00    -0.268 OA
BRANCH  74  76
ATOM     76  CA  TRP     9       1.206 -18.923   9.386  1.00  0.00     0.191 C 
BRANCH  76  77
ATOM     77  CB  TRP     9       2.309 -18.245  10.215  1.00  0.00     0.062 C 
BRANCH  77  78
ATOM     78  CG  TRP     9       3.416 -17.634   9.357  1.00  0.00     0.001 A 
ATOM     79  CD1 TRP     9       3.328 -16.509   8.652  1.00  0.00     0.095 A 
ATOM     80  NE1 TRP     9       4.346 -16.430   7.806  1.00  0.00    -0.244 NA
ATOM     81  CE2 TRP     9       5.129 -17.488   7.954  1.00  0.00     0.081 A 
ATOM     82  CD2 TRP     9       4.564 -18.294   8.929  1.00  0.00     0.015 A 
ATOM     83  CZ2 TRP     9       6.259 -17.933   7.268  1.00  0.00     0.019 A 
ATOM     84  CE3 TRP     9       5.098 -19.541   9.219  1.00  0.00     0.001 A 
ATOM     85  CZ3 TRP     9       6.217 -19.992   8.527  1.00  0.00     0.000 A 
ATOM     86  CH2 TRP     9       6.805 -19.173   7.564  1.00  0.00     0.002 A 
ENDBRANCH  77  78
ENDBRANCH  76  77
BRANCH  76  87
ATOM     87  C   TRP     9       1.286 -20.463   9.483  1.00  0.00     0.275 C 
ATOM     88  O   TRP     9       1.804 -21.007  10.453  1.00  0.00    -0.268 OA
ATOM     89  N   GLY    10       0.679 -21.146   8.514  1.00  0.00    -0.226 NA
BRANCH  89  90
ATOM     90  CA  GLY    10       0.608 -22.632   8.452  1.00  0.00     0.218 C 
BRANCH  90  91
ATOM     91  C   GLY    10       1.948 -23.375   8.336  1.00  0.00     0.277 C 
ATOM     92  N   CYS    11       2.159 -24.306   9.265  1.00  0.00    -0.228 NA
ATOM     93  O   GLY    10       2.806 -22.994   7.548  1.00  0.00    -0.268 OA
BRANCH  92  94
ATOM     94  CA  CYS    11       3.344 -25.185   9.381  1.00  0.00     0.198 C 
BRANCH  94  95
ATOM     95  C   CYS    11       2.853 -26.614   9.681  1.00  0.00     0.275 C 
ATOM     96  O   CYS    11       3.567 -27.363  10.340  1.00  0.00    -0.268 OA
ATOM     97  N   GLY    12       1.766 -27.005   9.032  1.00  0.00    -0.225 NA
BRANCH  97  98
ATOM     98  CA  GLY    12       1.174 -28.342   9.191  1.00  0.00     0.226 C 
BRANCH  98  99
ATOM     99  C   GLY    12      -0.142 -28.190   9.988  1.00  0.00     0.211 C 
ATOM    100  O1  GLY    12      -0.475 -29.159  10.717  1.00  0.00    -0.646 OA
ATOM    101  O2  GLY    12      -0.762 -27.115   9.885  1.00  0.00    -0.646 OA
ENDBRANCH  98  99
ENDBRANCH  97  98
ENDBRANCH  94  95
BRANCH  94 102
ATOM    102  CB  CYS    11       4.186 -24.776  10.587  1.00  0.00     0.103 C 
ATOM    103  SG  CYS    11       4.641 -23.002  10.692  1.00  0.00    -0.080 SA
ENDBRANCH  94 102
ENDBRANCH  92  94
ENDBRANCH  90  91
ENDBRANCH  89  90
ENDBRANCH  76  87
ENDBRANCH  74  76
ENDBRANCH  65  73
ENDBRANCH  63  65
ENDBRANCH  61  62
BRANCH  61 104
ATOM    104  CB  ASN     7      -3.012 -13.141  10.975  1.00  0.00     0.126 C 
BRANCH 104 105
ATOM    105  CG  ASN     7      -1.575 -12.610  10.818  1.00  0.00     0.276 C 
ATOM    106  ND2 ASN     7      -0.748 -13.377  10.144  1.00  0.00    -0.107 N 
ATOM    107  OD1 ASN     7      -1.121 -11.629  11.392  1.00  0.00    -0.269 OA
ENDBRANCH 104 105
ENDBRANCH  61 104
ENDBRANCH  59  61
ENDBRANCH   1  58
TORSDOF 42
ENDMDL
MODEL 5
REMARK VINA RESULT:      -2.6      5.008     19.329
REMARK WARNING: 32 MAX_TORS EXCEEDED!!!
REMARK  42 active torsions:
REMARK  status: ('A' for Active; 'I' for Inactive)
REMARK    1  A    between atoms: CA_2  and  CB_3 
REMARK    2  A    between atoms: CA_2  and  C_11 
REMARK    3  A    between atoms: CB_3  and  CG_4 
REMARK       I    between atoms: C_11  and  N_13 
REMARK    4  A    between atoms: N_13  and  CA_14 
REMARK    5  A    between atoms: CA_14  and  CB_15 
REMARK    6  A    between atoms: CA_14  and  C_19 
REMARK    7  A    between atoms: CB_15  and  CG_16 
REMARK       I    between atoms: C_19  and  N_21 
REMARK    8  A    between atoms: CA_22  and  C_26 
REMARK       I    between atoms: C_26  and  N_28 
REMARK    9  A    between atoms: N_28  and  CA_29 
REMARK   10  A    between atoms: CA_29  and  C_35 
REMARK   11  A    between atoms: CA_29  and  CB_30 
REMARK   12  A    between atoms: CB_30  and  CG_31 
REMARK   13  A    between atoms: CG_31  and  CD_32 
REMARK       I    between atoms: C_35  and  N_37 
REMARK   14  A    between atoms: N_37  and  CA_38 
REMARK   15  A    between atoms: CA_38  and  CB_39 
REMARK   16  A    between atoms: CA_38  and  C_47 
REMARK   17  A    between atoms: CB_39  and  CG_40 
REMARK       I    between atoms: C_47  and  N_49 
REMARK   18  A    between atoms: N_49  and  CA_50 
REMARK   19  A    between atoms: CA_50  and  CB_51 
REMARK   20  A    between atoms: CA_50  and  C_58 
REMARK   21  A    between atoms: CB_51  and  CG_52 
REMARK   22  A    between atoms: CG_52  and  CD_53 
REMARK   23  A    between atoms: CD_53  and  NE_54 
REMARK       I    between atoms: C_58  and  N_60 
REMARK   24  A    between atoms: N_60  and  CA_61 
REMARK   25  A    between atoms: CA_61  and  C_66 
REMARK   26  A    between atoms: CA_61  and  CB_62 
REMARK   27  A    between atoms: CB_62  and  CG_63 
REMARK       I    between atoms: C_66  and  N_68 
REMARK   28  A    between atoms: N_68  and  CA_69 
REMARK   29  A    between atoms: CA_69  and  CB_70 
REMARK   30  A    between atoms: CA_69  and  C_77 
REMARK   31  A    between atoms: CB_70  and  CG_71 
REMARK       I    between atoms: C_77  and  N_79 
REMARK   32  A    between atoms: N_79  and  CA_80 
REMARK   33  A    between atoms: CA_80  and  CB_81 
REMARK   34  A    between atoms: CA_80  and  C_91 
REMARK   35  A    between atoms: CB_81  and  CG_82 
REMARK       I    between atoms: C_91  and  N_93 
REMARK   36  A    between atoms: N_93  and  CA_94 
REMARK   37  A    between atoms: CA_94  and  C_95 
REMARK       I    between atoms: C_95  and  N_97 
REMARK   38  A    between atoms: N_97  and  CA_98 
REMARK   39  A    between atoms: CA_98  and  C_101 
REMARK   40  A    between atoms: CA_98  and  CB_99 
REMARK       I    between atoms: C_101  and  N_103 
REMARK   41  A    between atoms: N_103  and  CA_104 
REMARK   42  A    between atoms: CA_104  and  C_105 
ROOT
ATOM      1  CA  ARG     6      -7.048 -13.004   9.654  1.00  0.00     0.186 C 
ENDROOT
BRANCH   1   2
ATOM      2  N   ARG     6      -8.187 -13.694  10.303  1.00  0.00    -0.229 NA
ATOM      3  C   TYR     5      -8.851 -14.695   9.711  1.00  0.00     0.275 C 
ATOM      4  O   TYR     5      -8.540 -15.127   8.600  1.00  0.00    -0.268 OA
BRANCH   3   5
ATOM      5  CA  TYR     5      -9.966 -15.374  10.524  1.00  0.00     0.191 C 
BRANCH   5   6
ATOM      6  N   TYR     5     -11.201 -15.629   9.739  1.00  0.00    -0.228 NA
ATOM      7  C   GLU     4     -12.323 -14.904   9.880  1.00  0.00     0.274 C 
ATOM      8  O   GLU     4     -12.372 -13.889  10.563  1.00  0.00    -0.268 OA
BRANCH   7   9
ATOM      9  CA  GLU     4     -13.460 -15.216   8.886  1.00  0.00     0.187 C 
BRANCH   9  10
ATOM     10  CB  GLU     4     -13.047 -14.787   7.469  1.00  0.00     0.045 C 
BRANCH  10  11
ATOM     11  CG  GLU     4     -11.626 -14.199   7.320  1.00  0.00     0.100 C 
BRANCH  11  12
ATOM     12  CD  GLU     4     -11.567 -12.674   7.386  1.00  0.00     0.185 C 
ATOM     13  OE1 GLU     4     -10.537 -12.157   7.892  1.00  0.00    -0.647 OA
ATOM     14  OE2 GLU     4     -12.659 -12.070   7.392  1.00  0.00    -0.647 OA
ENDBRANCH  11  12
ENDBRANCH  10  11
ENDBRANCH   9  10
BRANCH   9  15
ATOM     15  N   GLU     4     -14.732 -14.549   9.227  1.00  0.00    -0.229 NA
ATOM     16  C   PRO     3     -15.428 -13.688   8.495  1.00  0.00     0.272 C 
ATOM     17  O   PRO     3     -15.317 -13.595   7.272  1.00  0.00    -0.269 OA
BRANCH  16  18
ATOM     18  CA  PRO     3     -16.715 -13.172   9.142  1.00  0.00     0.165 C 
ATOM     19  N   PRO     3     -17.213 -11.890   8.600  1.00  0.00    -0.312 N 
ATOM     20  CD  PRO     3     -18.693 -11.938   8.481  1.00  0.00     0.105 C 
ATOM     21  C   ASP     2     -16.439 -10.806   8.404  1.00  0.00     0.257 C 
ATOM     22  CG  PRO     3     -19.087 -13.245   9.187  1.00  0.00     0.027 C 
ATOM     23  CB  PRO     3     -17.877 -14.150   8.979  1.00  0.00     0.034 C 
ATOM     24  O   ASP     2     -15.292 -10.762   8.874  1.00  0.00    -0.270 OA
BRANCH  21  25
ATOM     25  CA  ASP     2     -17.084  -9.490   7.913  1.00  0.00     0.195 C 
BRANCH  25  26
ATOM     26  CB  ASP     2     -16.112  -8.392   7.410  1.00  0.00     0.132 C 
BRANCH  26  27
ATOM     27  CG  ASP     2     -15.889  -7.331   8.504  1.00  0.00     0.188 C 
ATOM     28  OD2 ASP     2     -15.539  -6.195   8.093  1.00  0.00    -0.647 OA
ATOM     29  OD1 ASP     2     -15.504  -7.748   9.625  1.00  0.00    -0.647 OA
ENDBRANCH  26  27
ENDBRANCH  25  26
BRANCH  25  30
ATOM     30  N   ASP     2     -17.818  -8.799   8.986  1.00  0.00    -0.228 NA
ATOM     31  C   TYR     1     -19.099  -8.510   9.001  1.00  0.00     0.289 C 
ATOM     32  O   TYR     1     -19.969  -8.869   8.202  1.00  0.00    -0.268 OA
BRANCH  31  33
ATOM     33  CA  TYR     1     -19.465  -7.601  10.170  1.00  0.00     0.385 C 
ATOM     34  N   TYR     1     -18.223  -7.265  10.887  1.00  0.00     0.626 N 
BRANCH  33  35
ATOM     35  CB  TYR     1     -20.156  -6.370   9.590  1.00  0.00     0.075 C 
BRANCH  35  36
ATOM     36  CG  TYR     1     -21.688  -6.495   9.566  1.00  0.00    -0.019 A 
ATOM     37  CD2 TYR     1     -22.435  -6.022   8.499  1.00  0.00    -0.002 A 
ATOM     38  CE2 TYR     1     -23.798  -6.268   8.438  1.00  0.00     0.027 A 
ATOM     39  CZ  TYR     1     -24.405  -6.990   9.465  1.00  0.00     0.131 A 
ATOM     40  CE1 TYR     1     -23.661  -7.423  10.548  1.00  0.00     0.027 A 
ATOM     41  OH  TYR     1     -25.683  -7.402   9.341  1.00  0.00    -0.190 OA
ATOM     42  CD1 TYR     1     -22.298  -7.177  10.609  1.00  0.00    -0.002 A 
ENDBRANCH  35  36
ENDBRANCH  33  35
ENDBRANCH  31  33
ENDBRANCH  25  30
ENDBRANCH  21  25
ENDBRANCH  16  18
ENDBRANCH   9  15
ENDBRANCH   7   9
ENDBRANCH   5   6
BRANCH   5  43
ATOM     43  CB  TYR     5      -9.464 -16.682  11.157  1.00  0.00     0.060 C 
BRANCH  43  44
ATOM     44  CG  TYR     5      -9.973 -17.926  10.409  1.00  0.00    -0.020 A 
ATOM     45  CD2 TYR     5      -9.783 -18.053   9.039  1.00  0.00    -0.002 A 
ATOM     46  CE2 TYR     5     -10.241 -19.186   8.372  1.00  0.00     0.027 A 
ATOM     47  CZ  TYR     5     -10.887 -20.190   9.074  1.00  0.00     0.131 A 
ATOM     48  CE1 TYR     5     -11.065 -20.079  10.449  1.00  0.00     0.027 A 
ATOM     49  OH  TYR     5     -11.456 -21.224   8.416  1.00  0.00    -0.190 OA
ATOM     50  CD1 TYR     5     -10.613 -18.939  11.114  1.00  0.00    -0.002 A 
ENDBRANCH  43  44
ENDBRANCH   5  43
ENDBRANCH   3   5
ENDBRANCH   1   2
BRANCH   1  51
ATOM     51  CB  ARG     6      -7.129 -11.485   9.771  1.00  0.00     0.036 C 
BRANCH  51  52
ATOM     52  CG  ARG     6      -6.223 -10.743   8.785  1.00  0.00     0.029 C 
BRANCH  52  53
ATOM     53  CD  ARG     6      -5.968  -9.318   9.267  1.00  0.00     0.145 C 
BRANCH  53  54
ATOM     54  NE  ARG     6      -6.845  -8.361   8.574  1.00  0.00    -0.083 NA
ATOM     55  CZ  ARG     6      -7.032  -7.075   8.927  1.00  0.00     0.782 C 
ATOM     56  NH2 ARG     6      -7.917  -6.315   8.278  1.00  0.00     0.063 N 
ATOM     57  NH1 ARG     6      -6.401  -6.571   9.982  1.00  0.00     0.063 N 
ENDBRANCH  53  54
ENDBRANCH  52  53
ENDBRANCH  51  52
ENDBRANCH   1  51
BRANCH   1  58
ATOM     58  C   ARG     6      -5.696 -13.418  10.248  1.00  0.00     0.274 C 
ATOM     59  N   ASN     7      -4.926 -14.168   9.464  1.00  0.00    -0.228 NA
ATOM     60  O   ARG     6      -5.401 -13.050  11.387  1.00  0.00    -0.268 OA
BRANCH  59  61
ATOM     61  CA  ASN     7      -3.554 -14.580   9.824  1.00  0.00     0.196 C 
BRANCH  61  62
ATOM     62  C   ASN     7      -3.452 -16.106  10.018  1.00  0.00     0.275 C 
ATOM     63  N   PHE     8      -2.693 -16.780   9.141  1.00  0.00    -0.228 NA
ATOM     64  O   ASN     7      -3.720 -16.544  11.120  1.00  0.00    -0.268 OA
BRANCH  63  65
ATOM     65  CA  PHE     8      -2.404 -18.234   9.211  1.00  0.00     0.191 C 
BRANCH  65  66
ATOM     66  CB  PHE     8      -3.560 -18.987   8.538  1.00  0.00     0.060 C 
BRANCH  66  67
ATOM     67  CG  PHE     8      -4.295 -19.979   9.459  1.00  0.00    -0.020 A 
ATOM     68  CD1 PHE     8      -3.594 -21.014  10.061  1.00  0.00    -0.004 A 
ATOM     69  CE1 PHE     8      -4.277 -21.970  10.812  1.00  0.00    -0.000 A 
ATOM     70  CZ  PHE     8      -5.651 -21.873  10.964  1.00  0.00    -0.000 A 
ATOM     71  CE2 PHE     8      -6.354 -20.828  10.372  1.00  0.00    -0.000 A 
ATOM     72  CD2 PHE     8      -5.670 -19.872   9.622  1.00  0.00    -0.004 A 
ENDBRANCH  66  67
ENDBRANCH  65  66
BRANCH  65  73
ATOM     73  C   PHE     8      -1.034 -18.655   8.633  1.00  0.00     0.275 C 
ATOM     74  N   TRP     9      -0.083 -18.956   9.519  1.00  0.00    -0.228 NA
ATOM     75  O   PHE     8      -0.767 -18.477   7.442  1.00  0.00    -0.268 OA
BRANCH  74  76
ATOM     76  CA  TRP     9       1.237 -19.493   9.106  1.00  0.00     0.191 C 
BRANCH  76  77
ATOM     77  CB  TRP     9       2.313 -18.956  10.064  1.00  0.00     0.062 C 
BRANCH  77  78
ATOM     78  CG  TRP     9       2.964 -17.663   9.573  1.00  0.00     0.001 A 
ATOM     79  CD1 TRP     9       2.487 -16.858   8.628  1.00  0.00     0.095 A 
ATOM     80  NE1 TRP     9       3.430 -16.006   8.248  1.00  0.00    -0.244 NA
ATOM     81  CE2 TRP     9       4.533 -16.223   8.948  1.00  0.00     0.081 A 
ATOM     82  CD2 TRP     9       4.284 -17.287   9.801  1.00  0.00     0.015 A 
ATOM     83  CZ2 TRP     9       5.816 -15.681   8.886  1.00  0.00     0.019 A 
ATOM     84  CE3 TRP     9       5.298 -17.826  10.580  1.00  0.00     0.001 A 
ATOM     85  CZ3 TRP     9       6.581 -17.295  10.509  1.00  0.00     0.000 A 
ATOM     86  CH2 TRP     9       6.830 -16.208   9.673  1.00  0.00     0.002 A 
ENDBRANCH  77  78
ENDBRANCH  76  77
BRANCH  76  87
ATOM     87  C   TRP     9       1.295 -21.033   8.990  1.00  0.00     0.275 C 
ATOM     88  O   TRP     9       0.301 -21.679   8.670  1.00  0.00    -0.268 OA
ATOM     89  N   GLY    10       2.493 -21.591   9.158  1.00  0.00    -0.226 NA
BRANCH  89  90
ATOM     90  CA  GLY    10       2.762 -23.051   9.044  1.00  0.00     0.218 C 
BRANCH  90  91
ATOM     91  C   GLY    10       2.009 -23.962  10.027  1.00  0.00     0.277 C 
ATOM     92  N   CYS    11       1.057 -24.716   9.480  1.00  0.00    -0.228 NA
ATOM     93  O   GLY    10       2.178 -23.849  11.235  1.00  0.00    -0.268 OA
BRANCH  92  94
ATOM     94  CA  CYS    11       0.196 -25.696  10.180  1.00  0.00     0.198 C 
BRANCH  94  95
ATOM     95  C   CYS    11       0.831 -27.091  10.021  1.00  0.00     0.275 C 
ATOM     96  O   CYS    11       1.423 -27.360   8.981  1.00  0.00    -0.268 OA
ATOM     97  N   GLY    12       0.521 -27.982  10.951  1.00  0.00    -0.225 NA
BRANCH  97  98
ATOM     98  CA  GLY    12       1.028 -29.363  10.939  1.00  0.00     0.226 C 
BRANCH  98  99
ATOM     99  C   GLY    12       0.059 -30.220  10.092  1.00  0.00     0.211 C 
ATOM    100  O1  GLY    12      -0.575 -31.120  10.699  1.00  0.00    -0.646 OA
ATOM    101  O2  GLY    12      -0.055 -29.943   8.884  1.00  0.00    -0.646 OA
ENDBRANCH  98  99
ENDBRANCH  97  98
ENDBRANCH  94  95
BRANCH  94 102
ATOM    102  CB  CYS    11      -1.166 -25.782   9.497  1.00  0.00     0.103 C 
ATOM    103  SG  CYS    11      -1.144 -26.009   7.677  1.00  0.00    -0.080 SA
ENDBRANCH  94 102
ENDBRANCH  92  94
ENDBRANCH  90  91
ENDBRANCH  89  90
ENDBRANCH  76  87
ENDBRANCH  74  76
ENDBRANCH  65  73
ENDBRANCH  63  65
ENDBRANCH  61  62
BRANCH  61 104
ATOM    104  CB  ASN     7      -3.059 -13.839  11.072  1.00  0.00     0.126 C 
BRANCH 104 105
ATOM    105  CG  ASN     7      -2.381 -12.484  10.794  1.00  0.00     0.276 C 
ATOM    106  ND2 ASN     7      -1.114 -12.532  10.454  1.00  0.00    -0.107 N 
ATOM    107  OD1 ASN     7      -2.883 -11.389  11.014  1.00  0.00    -0.269 OA
ENDBRANCH 104 105
ENDBRANCH  61 104
ENDBRANCH  59  61
ENDBRANCH   1  58
TORSDOF 42
ENDMDL
MODEL 6
REMARK VINA RESULT:      -2.5     11.056     21.569
REMARK WARNING: 32 MAX_TORS EXCEEDED!!!
REMARK  42 active torsions:
REMARK  status: ('A' for Active; 'I' for Inactive)
REMARK    1  A    between atoms: CA_2  and  CB_3 
REMARK    2  A    between atoms: CA_2  and  C_11 
REMARK    3  A    between atoms: CB_3  and  CG_4 
REMARK       I    between atoms: C_11  and  N_13 
REMARK    4  A    between atoms: N_13  and  CA_14 
REMARK    5  A    between atoms: CA_14  and  CB_15 
REMARK    6  A    between atoms: CA_14  and  C_19 
REMARK    7  A    between atoms: CB_15  and  CG_16 
REMARK       I    between atoms: C_19  and  N_21 
REMARK    8  A    between atoms: CA_22  and  C_26 
REMARK       I    between atoms: C_26  and  N_28 
REMARK    9  A    between atoms: N_28  and  CA_29 
REMARK   10  A    between atoms: CA_29  and  C_35 
REMARK   11  A    between atoms: CA_29  and  CB_30 
REMARK   12  A    between atoms: CB_30  and  CG_31 
REMARK   13  A    between atoms: CG_31  and  CD_32 
REMARK       I    between atoms: C_35  and  N_37 
REMARK   14  A    between atoms: N_37  and  CA_38 
REMARK   15  A    between atoms: CA_38  and  CB_39 
REMARK   16  A    between atoms: CA_38  and  C_47 
REMARK   17  A    between atoms: CB_39  and  CG_40 
REMARK       I    between atoms: C_47  and  N_49 
REMARK   18  A    between atoms: N_49  and  CA_50 
REMARK   19  A    between atoms: CA_50  and  CB_51 
REMARK   20  A    between atoms: CA_50  and  C_58 
REMARK   21  A    between atoms: CB_51  and  CG_52 
REMARK   22  A    between atoms: CG_52  and  CD_53 
REMARK   23  A    between atoms: CD_53  and  NE_54 
REMARK       I    between atoms: C_58  and  N_60 
REMARK   24  A    between atoms: N_60  and  CA_61 
REMARK   25  A    between atoms: CA_61  and  C_66 
REMARK   26  A    between atoms: CA_61  and  CB_62 
REMARK   27  A    between atoms: CB_62  and  CG_63 
REMARK       I    between atoms: C_66  and  N_68 
REMARK   28  A    between atoms: N_68  and  CA_69 
REMARK   29  A    between atoms: CA_69  and  CB_70 
REMARK   30  A    between atoms: CA_69  and  C_77 
REMARK   31  A    between atoms: CB_70  and  CG_71 
REMARK       I    between atoms: C_77  and  N_79 
REMARK   32  A    between atoms: N_79  and  CA_80 
REMARK   33  A    between atoms: CA_80  and  CB_81 
REMARK   34  A    between atoms: CA_80  and  C_91 
REMARK   35  A    between atoms: CB_81  and  CG_82 
REMARK       I    between atoms: C_91  and  N_93 
REMARK   36  A    between atoms: N_93  and  CA_94 
REMARK   37  A    between atoms: CA_94  and  C_95 
REMARK       I    between atoms: C_95  and  N_97 
REMARK   38  A    between atoms: N_97  and  CA_98 
REMARK   39  A    between atoms: CA_98  and  C_101 
REMARK   40  A    between atoms: CA_98  and  CB_99 
REMARK       I    between atoms: C_101  and  N_103 
REMARK   41  A    between atoms: N_103  and  CA_104 
REMARK   42  A    between atoms: CA_104  and  C_105 
ROOT
ATOM      1  CA  ARG     6      -9.318  -3.219   8.682  1.00  0.00     0.186 C 
ENDROOT
BRANCH   1   2
ATOM      2  N   ARG     6      -8.869  -4.501   9.273  1.00  0.00    -0.229 NA
ATOM      3  C   TYR     5      -8.695  -5.608   8.539  1.00  0.00     0.275 C 
ATOM      4  O   TYR     5      -8.869  -5.624   7.320  1.00  0.00    -0.268 OA
BRANCH   3   5
ATOM      5  CA  TYR     5      -8.154  -6.851   9.263  1.00  0.00     0.191 C 
BRANCH   5   6
ATOM      6  N   TYR     5      -8.942  -8.082   8.997  1.00  0.00    -0.228 NA
ATOM      7  C   GLU     4      -9.902  -8.532   9.822  1.00  0.00     0.274 C 
ATOM      8  O   GLU     4     -10.299  -7.890  10.785  1.00  0.00    -0.268 OA
BRANCH   7   9
ATOM      9  CA  GLU     4     -10.713  -9.744   9.319  1.00  0.00     0.187 C 
BRANCH   9  10
ATOM     10  CB  GLU     4     -10.410  -9.994   7.833  1.00  0.00     0.045 C 
BRANCH  10  11
ATOM     11  CG  GLU     4     -10.847 -11.364   7.267  1.00  0.00     0.100 C 
BRANCH  11  12
ATOM     12  CD  GLU     4     -10.348 -12.564   8.071  1.00  0.00     0.185 C 
ATOM     13  OE1 GLU     4     -11.191 -13.179   8.775  1.00  0.00    -0.647 OA
ATOM     14  OE2 GLU     4      -9.134 -12.579   8.361  1.00  0.00    -0.647 OA
ENDBRANCH  11  12
ENDBRANCH  10  11
ENDBRANCH   9  10
BRANCH   9  15
ATOM     15  N   GLU     4     -12.170  -9.578   9.482  1.00  0.00    -0.229 NA
ATOM     16  C   PRO     3     -12.985 -10.237  10.297  1.00  0.00     0.272 C 
ATOM     17  O   PRO     3     -12.598 -10.830  11.305  1.00  0.00    -0.269 OA
BRANCH  16  18
ATOM     18  CA  PRO     3     -14.456  -9.825  10.223  1.00  0.00     0.165 C 
ATOM     19  N   PRO     3     -15.421 -10.940  10.335  1.00  0.00    -0.312 N 
ATOM     20  CD  PRO     3     -16.570 -10.523  11.178  1.00  0.00     0.105 C 
ATOM     21  C   ASP     2     -15.325 -12.089   9.641  1.00  0.00     0.257 C 
ATOM     22  CG  PRO     3     -16.357  -9.016  11.392  1.00  0.00     0.027 C 
ATOM     23  CB  PRO     3     -14.841  -8.853  11.336  1.00  0.00     0.034 C 
ATOM     24  O   ASP     2     -14.524 -12.186   8.699  1.00  0.00    -0.270 OA
BRANCH  21  25
ATOM     25  CA  ASP     2     -16.439 -13.152   9.773  1.00  0.00     0.195 C 
BRANCH  25  26
ATOM     26  CB  ASP     2     -16.218 -14.481   9.006  1.00  0.00     0.132 C 
BRANCH  26  27
ATOM     27  CG  ASP     2     -16.848 -15.657   9.775  1.00  0.00     0.188 C 
ATOM     28  OD2 ASP     2     -16.177 -16.091  10.746  1.00  0.00    -0.647 OA
ATOM     29  OD1 ASP     2     -17.587 -16.430   9.116  1.00  0.00    -0.647 OA
ENDBRANCH  26  27
ENDBRANCH  25  26
BRANCH  25  30
ATOM     30  N   ASP     2     -17.723 -12.679   9.228  1.00  0.00    -0.228 NA
ATOM     31  C   TYR     1     -18.860 -12.577   9.875  1.00  0.00     0.289 C 
ATOM     32  O   TYR     1     -19.063 -12.719  11.085  1.00  0.00    -0.268 OA
BRANCH  31  33
ATOM     33  CA  TYR     1     -20.023 -12.261   8.939  1.00  0.00     0.385 C 
ATOM     34  N   TYR     1     -19.653 -12.719   7.590  1.00  0.00     0.626 N 
BRANCH  33  35
ATOM     35  CB  TYR     1     -21.254 -12.982   9.484  1.00  0.00     0.075 C 
BRANCH  35  36
ATOM     36  CG  TYR     1     -22.420 -12.031   9.792  1.00  0.00    -0.019 A 
ATOM     37  CD2 TYR     1     -22.942 -11.189   8.822  1.00  0.00    -0.002 A 
ATOM     38  CE2 TYR     1     -24.079 -10.440   9.086  1.00  0.00     0.027 A 
ATOM     39  CZ  TYR     1     -24.684 -10.541  10.338  1.00  0.00     0.131 A 
ATOM     40  CE1 TYR     1     -24.134 -11.352  11.315  1.00  0.00     0.027 A 
ATOM     41  OH  TYR     1     -25.887  -9.974  10.558  1.00  0.00    -0.190 OA
ATOM     42  CD1 TYR     1     -22.997 -12.101  11.051  1.00  0.00    -0.002 A 
ENDBRANCH  35  36
ENDBRANCH  33  35
ENDBRANCH  31  33
ENDBRANCH  25  30
ENDBRANCH  21  25
ENDBRANCH  16  18
ENDBRANCH   9  15
ENDBRANCH   7   9
ENDBRANCH   5   6
BRANCH   5  43
ATOM     43  CB  TYR     5      -6.674  -7.087   8.918  1.00  0.00     0.060 C 
BRANCH  43  44
ATOM     44  CG  TYR     5      -6.319  -8.583   8.860  1.00  0.00    -0.020 A 
ATOM     45  CD2 TYR     5      -5.851  -9.243   9.989  1.00  0.00    -0.002 A 
ATOM     46  CE2 TYR     5      -5.540 -10.598   9.928  1.00  0.00     0.027 A 
ATOM     47  CZ  TYR     5      -5.697 -11.293   8.739  1.00  0.00     0.131 A 
ATOM     48  CE1 TYR     5      -6.182 -10.643   7.609  1.00  0.00     0.027 A 
ATOM     49  OH  TYR     5      -5.268 -12.569   8.635  1.00  0.00    -0.190 OA
ATOM     50  CD1 TYR     5      -6.485  -9.283   7.670  1.00  0.00    -0.002 A 
ENDBRANCH  43  44
ENDBRANCH   5  43
ENDBRANCH   3   5
ENDBRANCH   1   2
BRANCH   1  51
ATOM     51  CB  ARG     6     -10.771  -3.255   8.220  1.00  0.00     0.036 C 
BRANCH  51  52
ATOM     52  CG  ARG     6     -11.609  -4.336   8.909  1.00  0.00     0.029 C 
BRANCH  52  53
ATOM     53  CD  ARG     6     -13.086  -4.162   8.566  1.00  0.00     0.145 C 
BRANCH  53  54
ATOM     54  NE  ARG     6     -13.807  -5.441   8.673  1.00  0.00    -0.083 NA
ATOM     55  CZ  ARG     6     -15.040  -5.602   9.189  1.00  0.00     0.782 C 
ATOM     56  NH2 ARG     6     -15.568  -6.822   9.315  1.00  0.00     0.063 N 
ATOM     57  NH1 ARG     6     -15.712  -4.557   9.659  1.00  0.00     0.063 N 
ENDBRANCH  53  54
ENDBRANCH  52  53
ENDBRANCH  51  52
ENDBRANCH   1  51
BRANCH   1  58
ATOM     58  C   ARG     6      -9.200  -2.047   9.665  1.00  0.00     0.274 C 
ATOM     59  N   ASN     7      -8.507  -0.997   9.230  1.00  0.00    -0.228 NA
ATOM     60  O   ARG     6      -9.731  -2.135  10.773  1.00  0.00    -0.268 OA
BRANCH  59  61
ATOM     61  CA  ASN     7      -8.368   0.260   9.994  1.00  0.00     0.196 C 
BRANCH  61  62
ATOM     62  C   ASN     7      -7.893   1.419   9.096  1.00  0.00     0.275 C 
ATOM     63  N   PHE     8      -7.333   2.472   9.710  1.00  0.00    -0.228 NA
ATOM     64  O   ASN     7      -7.694   1.166   7.923  1.00  0.00    -0.268 OA
BRANCH  63  65
ATOM     65  CA  PHE     8      -6.739   3.641   9.016  1.00  0.00     0.191 C 
BRANCH  65  66
ATOM     66  CB  PHE     8      -5.937   3.129   7.811  1.00  0.00     0.060 C 
BRANCH  66  67
ATOM     67  CG  PHE     8      -4.429   3.437   7.874  1.00  0.00    -0.020 A 
ATOM     68  CD1 PHE     8      -3.989   4.753   7.837  1.00  0.00    -0.004 A 
ATOM     69  CE1 PHE     8      -2.622   5.026   7.791  1.00  0.00    -0.000 A 
ATOM     70  CZ  PHE     8      -1.711   3.982   7.797  1.00  0.00    -0.000 A 
ATOM     71  CE2 PHE     8      -2.150   2.663   7.847  1.00  0.00    -0.000 A 
ATOM     72  CD2 PHE     8      -3.517   2.390   7.893  1.00  0.00    -0.004 A 
ENDBRANCH  66  67
ENDBRANCH  65  66
BRANCH  65  73
ATOM     73  C   PHE     8      -7.748   4.738   8.605  1.00  0.00     0.275 C 
ATOM     74  N   TRP     9      -8.266   5.468   9.594  1.00  0.00    -0.228 NA
ATOM     75  O   PHE     8      -8.231   4.762   7.470  1.00  0.00    -0.268 OA
BRANCH  74  76
ATOM     76  CA  TRP     9      -9.149   6.631   9.335  1.00  0.00     0.191 C 
BRANCH  76  77
ATOM     77  CB  TRP     9     -10.319   6.598  10.333  1.00  0.00     0.062 C 
BRANCH  77  78
ATOM     78  CG  TRP     9     -11.558   5.892   9.784  1.00  0.00     0.001 A 
ATOM     79  CD1 TRP     9     -12.717   6.470   9.483  1.00  0.00     0.095 A 
ATOM     80  NE1 TRP     9     -13.652   5.542   9.320  1.00  0.00    -0.244 NA
ATOM     81  CE2 TRP     9     -13.119   4.342   9.491  1.00  0.00     0.081 A 
ATOM     82  CD2 TRP     9     -11.780   4.519   9.804  1.00  0.00     0.015 A 
ATOM     83  CZ2 TRP     9     -13.665   3.059   9.519  1.00  0.00     0.019 A 
ATOM     84  CE3 TRP     9     -10.985   3.439  10.159  1.00  0.00     0.001 A 
ATOM     85  CZ3 TRP     9     -11.531   2.161  10.201  1.00  0.00     0.000 A 
ATOM     86  CH2 TRP     9     -12.870   1.975   9.861  1.00  0.00     0.002 A 
ENDBRANCH  77  78
ENDBRANCH  76  77
BRANCH  76  87
ATOM     87  C   TRP     9      -8.429   7.999   9.347  1.00  0.00     0.275 C 
ATOM     88  O   TRP     9      -7.204   8.065   9.352  1.00  0.00    -0.268 OA
ATOM     89  N   GLY    10      -9.208   9.075   9.250  1.00  0.00    -0.226 NA
BRANCH  89  90
ATOM     90  CA  GLY    10      -8.703  10.474   9.201  1.00  0.00     0.218 C 
BRANCH  90  91
ATOM     91  C   GLY    10      -9.748  11.568   8.927  1.00  0.00     0.277 C 
ATOM     92  N   CYS    11     -10.529  11.872   9.963  1.00  0.00    -0.228 NA
ATOM     93  O   GLY    10      -9.936  11.980   7.788  1.00  0.00    -0.268 OA
BRANCH  92  94
ATOM     94  CA  CYS    11     -11.597  12.896   9.991  1.00  0.00     0.198 C 
BRANCH  94  95
ATOM     95  C   CYS    11     -10.957  14.246  10.368  1.00  0.00     0.275 C 
ATOM     96  O   CYS    11     -11.527  14.971  11.175  1.00  0.00    -0.268 OA
ATOM     97  N   GLY    12      -9.919  14.622   9.636  1.00  0.00    -0.225 NA
BRANCH  97  98
ATOM     98  CA  GLY    12      -9.202  15.889   9.852  1.00  0.00     0.226 C 
BRANCH  98  99
ATOM     99  C   GLY    12      -9.076  16.605   8.488  1.00  0.00     0.211 C 
ATOM    100  O1  GLY    12      -7.972  16.499   7.895  1.00  0.00    -0.646 OA
ATOM    101  O2  GLY    12     -10.076  17.205   8.053  1.00  0.00    -0.646 OA
ENDBRANCH  98  99
ENDBRANCH  97  98
ENDBRANCH  94  95
BRANCH  94 102
ATOM    102  CB  CYS    11     -12.593  12.586  11.106  1.00  0.00     0.103 C 
ATOM    103  SG  CYS    11     -13.292  10.891  11.118  1.00  0.00    -0.080 SA
ENDBRANCH  94 102
ENDBRANCH  92  94
ENDBRANCH  90  91
ENDBRANCH  89  90
ENDBRANCH  76  87
ENDBRANCH  74  76
ENDBRANCH  65  73
ENDBRANCH  63  65
ENDBRANCH  61  62
BRANCH  61 104
ATOM    104  CB  ASN     7      -7.430   0.081  11.194  1.00  0.00     0.126 C 
BRANCH 104 105
ATOM    105  CG  ASN     7      -6.314  -0.961  10.994  1.00  0.00     0.276 C 
ATOM    106  ND2 ASN     7      -5.161  -0.496  10.571  1.00  0.00    -0.107 N 
ATOM    107  OD1 ASN     7      -6.467  -2.175  11.048  1.00  0.00    -0.269 OA
ENDBRANCH 104 105
ENDBRANCH  61 104
ENDBRANCH  59  61
ENDBRANCH   1  58
TORSDOF 42
ENDMDL
MODEL 7
REMARK VINA RESULT:      -2.3      2.665      3.669
REMARK WARNING: 32 MAX_TORS EXCEEDED!!!
REMARK  42 active torsions:
REMARK  status: ('A' for Active; 'I' for Inactive)
REMARK    1  A    between atoms: CA_2  and  CB_3 
REMARK    2  A    between atoms: CA_2  and  C_11 
REMARK    3  A    between atoms: CB_3  and  CG_4 
REMARK       I    between atoms: C_11  and  N_13 
REMARK    4  A    between atoms: N_13  and  CA_14 
REMARK    5  A    between atoms: CA_14  and  CB_15 
REMARK    6  A    between atoms: CA_14  and  C_19 
REMARK    7  A    between atoms: CB_15  and  CG_16 
REMARK       I    between atoms: C_19  and  N_21 
REMARK    8  A    between atoms: CA_22  and  C_26 
REMARK       I    between atoms: C_26  and  N_28 
REMARK    9  A    between atoms: N_28  and  CA_29 
REMARK   10  A    between atoms: CA_29  and  C_35 
REMARK   11  A    between atoms: CA_29  and  CB_30 
REMARK   12  A    between atoms: CB_30  and  CG_31 
REMARK   13  A    between atoms: CG_31  and  CD_32 
REMARK       I    between atoms: C_35  and  N_37 
REMARK   14  A    between atoms: N_37  and  CA_38 
REMARK   15  A    between atoms: CA_38  and  CB_39 
REMARK   16  A    between atoms: CA_38  and  C_47 
REMARK   17  A    between atoms: CB_39  and  CG_40 
REMARK       I    between atoms: C_47  and  N_49 
REMARK   18  A    between atoms: N_49  and  CA_50 
REMARK   19  A    between atoms: CA_50  and  CB_51 
REMARK   20  A    between atoms: CA_50  and  C_58 
REMARK   21  A    between atoms: CB_51  and  CG_52 
REMARK   22  A    between atoms: CG_52  and  CD_53 
REMARK   23  A    between atoms: CD_53  and  NE_54 
REMARK       I    between atoms: C_58  and  N_60 
REMARK   24  A    between atoms: N_60  and  CA_61 
REMARK   25  A    between atoms: CA_61  and  C_66 
REMARK   26  A    between atoms: CA_61  and  CB_62 
REMARK   27  A    between atoms: CB_62  and  CG_63 
REMARK       I    between atoms: C_66  and  N_68 
REMARK   28  A    between atoms: N_68  and  CA_69 
REMARK   29  A    between atoms: CA_69  and  CB_70 
REMARK   30  A    between atoms: CA_69  and  C_77 
REMARK   31  A    between atoms: CB_70  and  CG_71 
REMARK       I    between atoms: C_77  and  N_79 
REMARK   32  A    between atoms: N_79  and  CA_80 
REMARK   33  A    between atoms: CA_80  and  CB_81 
REMARK   34  A    between atoms: CA_80  and  C_91 
REMARK   35  A    between atoms: CB_81  and  CG_82 
REMARK       I    between atoms: C_91  and  N_93 
REMARK   36  A    between atoms: N_93  and  CA_94 
REMARK   37  A    between atoms: CA_94  and  C_95 
REMARK       I    between atoms: C_95  and  N_97 
REMARK   38  A    between atoms: N_97  and  CA_98 
REMARK   39  A    between atoms: CA_98  and  C_101 
REMARK   40  A    between atoms: CA_98  and  CB_99 
REMARK       I    between atoms: C_101  and  N_103 
REMARK   41  A    between atoms: N_103  and  CA_104 
REMARK   42  A    between atoms: CA_104  and  C_105 
ROOT
ATOM      1  CA  ARG     6      -7.364 -20.537   7.738  1.00  0.00     0.186 C 
ENDROOT
BRANCH   1   2
ATOM      2  N   ARG     6      -6.062 -21.231   7.605  1.00  0.00    -0.229 NA
ATOM      3  C   TYR     5      -4.905 -20.569   7.482  1.00  0.00     0.275 C 
ATOM      4  O   TYR     5      -4.844 -19.339   7.500  1.00  0.00    -0.268 OA
BRANCH   3   5
ATOM      5  CA  TYR     5      -3.619 -21.409   7.428  1.00  0.00     0.191 C 
BRANCH   5   6
ATOM      6  N   TYR     5      -2.683 -21.134   8.549  1.00  0.00    -0.228 NA
ATOM      7  C   GLU     4      -3.048 -20.487   9.668  1.00  0.00     0.274 C 
ATOM      8  O   GLU     4      -4.212 -20.197   9.913  1.00  0.00    -0.268 OA
BRANCH   7   9
ATOM      9  CA  GLU     4      -1.987 -20.414  10.784  1.00  0.00     0.187 C 
BRANCH   9  10
ATOM     10  CB  GLU     4      -1.636 -18.946  11.075  1.00  0.00     0.045 C 
BRANCH  10  11
ATOM     11  CG  GLU     4      -2.656 -17.891  10.593  1.00  0.00     0.100 C 
BRANCH  11  12
ATOM     12  CD  GLU     4      -2.122 -16.946   9.517  1.00  0.00     0.185 C 
ATOM     13  OE1 GLU     4      -0.957 -17.157   9.089  1.00  0.00    -0.647 OA
ATOM     14  OE2 GLU     4      -2.627 -15.806   9.472  1.00  0.00    -0.647 OA
ENDBRANCH  11  12
ENDBRANCH  10  11
ENDBRANCH   9  10
BRANCH   9  15
ATOM     15  N   GLU     4      -0.744 -21.139  10.455  1.00  0.00    -0.229 NA
ATOM     16  C   PRO     3       0.015 -21.016   9.373  1.00  0.00     0.272 C 
ATOM     17  O   PRO     3       0.006 -20.018   8.651  1.00  0.00    -0.269 OA
BRANCH  16  18
ATOM     18  CA  PRO     3       1.247 -21.922   9.333  1.00  0.00     0.165 C 
ATOM     19  N   PRO     3       2.498 -21.291   9.808  1.00  0.00    -0.312 N 
ATOM     20  CD  PRO     3       3.271 -22.265  10.620  1.00  0.00     0.105 C 
ATOM     21  C   ASP     2       2.922 -20.076   9.417  1.00  0.00     0.257 C 
ATOM     22  CG  PRO     3       2.524 -23.595  10.431  1.00  0.00     0.027 C 
ATOM     23  CB  PRO     3       1.077 -23.168  10.198  1.00  0.00     0.034 C 
ATOM     24  O   ASP     2       2.380 -19.501   8.461  1.00  0.00    -0.270 OA
BRANCH  21  25
ATOM     25  CA  ASP     2       4.289 -19.552   9.912  1.00  0.00     0.195 C 
BRANCH  25  26
ATOM     26  CB  ASP     2       4.728 -18.163   9.381  1.00  0.00     0.132 C 
BRANCH  26  27
ATOM     27  CG  ASP     2       3.736 -17.075   9.835  1.00  0.00     0.188 C 
ATOM     28  OD2 ASP     2       3.842 -15.968   9.250  1.00  0.00    -0.647 OA
ATOM     29  OD1 ASP     2       3.347 -17.130  11.028  1.00  0.00    -0.647 OA
ENDBRANCH  26  27
ENDBRANCH  25  26
BRANCH  25  30
ATOM     30  N   ASP     2       5.401 -20.420   9.488  1.00  0.00    -0.228 NA
ATOM     31  C   TYR     1       6.613 -20.443   9.989  1.00  0.00     0.289 C 
ATOM     32  O   TYR     1       7.034 -19.855  10.991  1.00  0.00    -0.268 OA
BRANCH  31  33
ATOM     33  CA  TYR     1       7.557 -21.310   9.161  1.00  0.00     0.385 C 
ATOM     34  N   TYR     1       8.524 -20.418   8.500  1.00  0.00     0.626 N 
BRANCH  33  35
ATOM     35  CB  TYR     1       8.229 -22.293  10.117  1.00  0.00     0.075 C 
BRANCH  35  36
ATOM     36  CG  TYR     1       7.687 -23.725   9.984  1.00  0.00    -0.019 A 
ATOM     37  CD2 TYR     1       8.364 -24.807  10.525  1.00  0.00    -0.002 A 
ATOM     38  CE2 TYR     1       7.788 -26.068  10.510  1.00  0.00     0.027 A 
ATOM     39  CZ  TYR     1       6.526 -26.233   9.940  1.00  0.00     0.131 A 
ATOM     40  CE1 TYR     1       5.874 -25.157   9.366  1.00  0.00     0.027 A 
ATOM     41  OH  TYR     1       5.867 -27.401  10.079  1.00  0.00    -0.190 OA
ATOM     42  CD1 TYR     1       6.450 -23.896   9.380  1.00  0.00    -0.002 A 
ENDBRANCH  35  36
ENDBRANCH  33  35
ENDBRANCH  31  33
ENDBRANCH  25  30
ENDBRANCH  21  25
ENDBRANCH  16  18
ENDBRANCH   9  15
ENDBRANCH   7   9
ENDBRANCH   5   6
BRANCH   5  43
ATOM     43  CB  TYR     5      -3.946 -22.911   7.370  1.00  0.00     0.060 C 
BRANCH  43  44
ATOM     44  CG  TYR     5      -3.201 -23.713   8.451  1.00  0.00    -0.020 A 
ATOM     45  CD2 TYR     5      -3.768 -23.906   9.704  1.00  0.00    -0.002 A 
ATOM     46  CE2 TYR     5      -3.090 -24.639  10.673  1.00  0.00     0.027 A 
ATOM     47  CZ  TYR     5      -1.845 -25.179  10.389  1.00  0.00     0.131 A 
ATOM     48  CE1 TYR     5      -1.278 -25.004   9.132  1.00  0.00     0.027 A 
ATOM     49  OH  TYR     5      -1.121 -25.770  11.364  1.00  0.00    -0.190 OA
ATOM     50  CD1 TYR     5      -1.956 -24.262   8.165  1.00  0.00    -0.002 A 
ENDBRANCH  43  44
ENDBRANCH   5  43
ENDBRANCH   3   5
ENDBRANCH   1   2
BRANCH   1  51
ATOM     51  CB  ARG     6      -8.541 -21.387   7.268  1.00  0.00     0.036 C 
BRANCH  51  52
ATOM     52  CG  ARG     6      -9.869 -21.019   7.932  1.00  0.00     0.029 C 
BRANCH  52  53
ATOM     53  CD  ARG     6     -10.736 -22.262   8.111  1.00  0.00     0.145 C 
BRANCH  53  54
ATOM     54  NE  ARG     6      -9.981 -23.342   8.766  1.00  0.00    -0.083 NA
ATOM     55  CZ  ARG     6     -10.430 -24.594   8.975  1.00  0.00     0.782 C 
ATOM     56  NH2 ARG     6      -9.693 -25.475   9.655  1.00  0.00     0.063 N 
ATOM     57  NH1 ARG     6     -11.650 -24.944   8.581  1.00  0.00     0.063 N 
ENDBRANCH  53  54
ENDBRANCH  52  53
ENDBRANCH  51  52
ENDBRANCH   1  51
BRANCH   1  58
ATOM     58  C   ARG     6      -7.668 -20.130   9.185  1.00  0.00     0.274 C 
ATOM     59  N   ASN     7      -8.062 -18.871   9.360  1.00  0.00    -0.228 NA
ATOM     60  O   ARG     6      -7.532 -20.961  10.084  1.00  0.00    -0.268 OA
BRANCH  59  61
ATOM     61  CA  ASN     7      -8.491 -18.326  10.665  1.00  0.00     0.196 C 
BRANCH  61  62
ATOM     62  C   ASN     7      -9.806 -17.531  10.542  1.00  0.00     0.275 C 
ATOM     63  N   PHE     8      -9.795 -16.462   9.732  1.00  0.00    -0.228 NA
ATOM     64  O   ASN     7     -10.832 -18.107  10.849  1.00  0.00    -0.268 OA
BRANCH  63  65
ATOM     65  CA  PHE     8     -10.979 -15.624   9.418  1.00  0.00     0.191 C 
BRANCH  65  66
ATOM     66  CB  PHE     8     -11.724 -15.335  10.728  1.00  0.00     0.060 C 
BRANCH  66  67
ATOM     67  CG  PHE     8     -13.259 -15.371  10.609  1.00  0.00    -0.020 A 
ATOM     68  CD1 PHE     8     -13.961 -14.202  10.347  1.00  0.00    -0.004 A 
ATOM     69  CE1 PHE     8     -15.356 -14.217  10.339  1.00  0.00    -0.000 A 
ATOM     70  CZ  PHE     8     -16.032 -15.402  10.579  1.00  0.00    -0.000 A 
ATOM     71  CE2 PHE     8     -15.331 -16.577  10.828  1.00  0.00    -0.000 A 
ATOM     72  CD2 PHE     8     -13.936 -16.562  10.835  1.00  0.00    -0.004 A 
ENDBRANCH  66  67
ENDBRANCH  65  66
BRANCH  65  73
ATOM     73  C   PHE     8     -10.671 -14.327   8.637  1.00  0.00     0.275 C 
ATOM     74  N   TRP     9     -10.169 -13.313   9.344  1.00  0.00    -0.228 NA
ATOM     75  O   PHE     8     -11.102 -14.159   7.494  1.00  0.00    -0.268 OA
BRANCH  74  76
ATOM     76  CA  TRP     9      -9.713 -12.055   8.703  1.00  0.00     0.191 C 
BRANCH  76  77
ATOM     77  CB  TRP     9      -8.950 -12.403   7.415  1.00  0.00     0.062 C 
BRANCH  77  78
ATOM     78  CG  TRP     9      -7.432 -12.392   7.594  1.00  0.00     0.001 A 
ATOM     79  CD1 TRP     9      -6.643 -13.461   7.635  1.00  0.00     0.095 A 
ATOM     80  NE1 TRP     9      -5.445 -13.117   8.091  1.00  0.00    -0.244 NA
ATOM     81  CE2 TRP     9      -5.422 -11.816   8.337  1.00  0.00     0.081 A 
ATOM     82  CD2 TRP     9      -6.680 -11.312   8.045  1.00  0.00     0.015 A 
ATOM     83  CZ2 TRP     9      -4.461 -10.976   8.900  1.00  0.00     0.019 A 
ATOM     84  CE3 TRP     9      -6.997  -9.991   8.321  1.00  0.00     0.001 A 
ATOM     85  CZ3 TRP     9      -6.045  -9.155   8.894  1.00  0.00     0.000 A 
ATOM     86  CH2 TRP     9      -4.771  -9.650   9.164  1.00  0.00     0.002 A 
ENDBRANCH  77  78
ENDBRANCH  76  77
BRANCH  76  87
ATOM     87  C   TRP     9     -10.836 -11.027   8.440  1.00  0.00     0.275 C 
ATOM     88  O   TRP     9     -11.535 -11.100   7.433  1.00  0.00    -0.268 OA
ATOM     89  N   GLY    10     -11.058 -10.137   9.406  1.00  0.00    -0.226 NA
BRANCH  89  90
ATOM     90  CA  GLY    10     -12.120  -9.095   9.360  1.00  0.00     0.218 C 
BRANCH  90  91
ATOM     91  C   GLY    10     -11.831  -7.864   8.485  1.00  0.00     0.277 C 
ATOM     92  N   CYS    11     -11.626  -6.732   9.156  1.00  0.00    -0.228 NA
ATOM     93  O   GLY    10     -11.963  -7.920   7.268  1.00  0.00    -0.268 OA
BRANCH  92  94
ATOM     94  CA  CYS    11     -11.307  -5.408   8.576  1.00  0.00     0.198 C 
BRANCH  94  95
ATOM     95  C   CYS    11      -9.961  -4.940   9.165  1.00  0.00     0.275 C 
ATOM     96  O   CYS    11      -9.962  -4.104  10.062  1.00  0.00    -0.268 OA
ATOM     97  N   GLY    12      -8.874  -5.333   8.517  1.00  0.00    -0.225 NA
BRANCH  97  98
ATOM     98  CA  GLY    12      -7.514  -4.961   8.935  1.00  0.00     0.226 C 
BRANCH  98  99
ATOM     99  C   GLY    12      -7.089  -5.913  10.078  1.00  0.00     0.211 C 
ATOM    100  O1  GLY    12      -6.048  -5.604  10.711  1.00  0.00    -0.646 OA
ATOM    101  O2  GLY    12      -7.819  -6.892  10.319  1.00  0.00    -0.646 OA
ENDBRANCH  98  99
ENDBRANCH  97  98
ENDBRANCH  94  95
BRANCH  94 102
ATOM    102  CB  CYS    11     -12.336  -4.375   9.027  1.00  0.00     0.103 C 
ATOM    103  SG  CYS    11     -13.733  -4.070   7.878  1.00  0.00    -0.080 SA
ENDBRANCH  94 102
ENDBRANCH  92  94
ENDBRANCH  90  91
ENDBRANCH  89  90
ENDBRANCH  76  87
ENDBRANCH  74  76
ENDBRANCH  65  73
ENDBRANCH  63  65
ENDBRANCH  61  62
BRANCH  61 104
ATOM    104  CB  ASN     7      -7.390 -17.466  11.298  1.00  0.00     0.126 C 
BRANCH 104 105
ATOM    105  CG  ASN     7      -6.850 -16.340  10.397  1.00  0.00     0.276 C 
ATOM    106  ND2 ASN     7      -6.023 -16.709   9.446  1.00  0.00    -0.107 N 
ATOM    107  OD1 ASN     7      -7.009 -15.142  10.597  1.00  0.00    -0.269 OA
ENDBRANCH 104 105
ENDBRANCH  61 104
ENDBRANCH  59  61
ENDBRANCH   1  58
TORSDOF 42
ENDMDL
MODEL 8
REMARK VINA RESULT:      -2.3     11.105     21.371
REMARK WARNING: 32 MAX_TORS EXCEEDED!!!
REMARK  42 active torsions:
REMARK  status: ('A' for Active; 'I' for Inactive)
REMARK    1  A    between atoms: CA_2  and  CB_3 
REMARK    2  A    between atoms: CA_2  and  C_11 
REMARK    3  A    between atoms: CB_3  and  CG_4 
REMARK       I    between atoms: C_11  and  N_13 
REMARK    4  A    between atoms: N_13  and  CA_14 
REMARK    5  A    between atoms: CA_14  and  CB_15 
REMARK    6  A    between atoms: CA_14  and  C_19 
REMARK    7  A    between atoms: CB_15  and  CG_16 
REMARK       I    between atoms: C_19  and  N_21 
REMARK    8  A    between atoms: CA_22  and  C_26 
REMARK       I    between atoms: C_26  and  N_28 
REMARK    9  A    between atoms: N_28  and  CA_29 
REMARK   10  A    between atoms: CA_29  and  C_35 
REMARK   11  A    between atoms: CA_29  and  CB_30 
REMARK   12  A    between atoms: CB_30  and  CG_31 
REMARK   13  A    between atoms: CG_31  and  CD_32 
REMARK       I    between atoms: C_35  and  N_37 
REMARK   14  A    between atoms: N_37  and  CA_38 
REMARK   15  A    between atoms: CA_38  and  CB_39 
REMARK   16  A    between atoms: CA_38  and  C_47 
REMARK   17  A    between atoms: CB_39  and  CG_40 
REMARK       I    between atoms: C_47  and  N_49 
REMARK   18  A    between atoms: N_49  and  CA_50 
REMARK   19  A    between atoms: CA_50  and  CB_51 
REMARK   20  A    between atoms: CA_50  and  C_58 
REMARK   21  A    between atoms: CB_51  and  CG_52 
REMARK   22  A    between atoms: CG_52  and  CD_53 
REMARK   23  A    between atoms: CD_53  and  NE_54 
REMARK       I    between atoms: C_58  and  N_60 
REMARK   24  A    between atoms: N_60  and  CA_61 
REMARK   25  A    between atoms: CA_61  and  C_66 
REMARK   26  A    between atoms: CA_61  and  CB_62 
REMARK   27  A    between atoms: CB_62  and  CG_63 
REMARK       I    between atoms: C_66  and  N_68 
REMARK   28  A    between atoms: N_68  and  CA_69 
REMARK   29  A    between atoms: CA_69  and  CB_70 
REMARK   30  A    between atoms: CA_69  and  C_77 
REMARK   31  A    between atoms: CB_70  and  CG_71 
REMARK       I    between atoms: C_77  and  N_79 
REMARK   32  A    between atoms: N_79  and  CA_80 
REMARK   33  A    between atoms: CA_80  and  CB_81 
REMARK   34  A    between atoms: CA_80  and  C_91 
REMARK   35  A    between atoms: CB_81  and  CG_82 
REMARK       I    between atoms: C_91  and  N_93 
REMARK   36  A    between atoms: N_93  and  CA_94 
REMARK   37  A    between atoms: CA_94  and  C_95 
REMARK       I    between atoms: C_95  and  N_97 
REMARK   38  A    between atoms: N_97  and  CA_98 
REMARK   39  A    between atoms: CA_98  and  C_101 
REMARK   40  A    between atoms: CA_98  and  CB_99 
REMARK       I    between atoms: C_101  and  N_103 
REMARK   41  A    between atoms: N_103  and  CA_104 
REMARK   42  A    between atoms: CA_104  and  C_105 
ROOT
ATOM      1  CA  ARG     6      -7.615  -3.410   8.700  1.00  0.00     0.186 C 
ENDROOT
BRANCH   1   2
ATOM      2  N   ARG     6      -7.583  -4.676   9.468  1.00  0.00    -0.229 NA
ATOM      3  C   TYR     5      -7.922  -5.853   8.925  1.00  0.00     0.275 C 
ATOM      4  O   TYR     5      -8.254  -5.963   7.745  1.00  0.00    -0.268 OA
BRANCH   3   5
ATOM      5  CA  TYR     5      -7.774  -7.102   9.810  1.00  0.00     0.191 C 
BRANCH   5   6
ATOM      6  N   TYR     5      -8.665  -8.221   9.411  1.00  0.00    -0.228 NA
ATOM      7  C   GLU     4      -9.939  -8.328   9.823  1.00  0.00     0.274 C 
ATOM      8  O   GLU     4     -10.509  -7.440  10.445  1.00  0.00    -0.268 OA
BRANCH   7   9
ATOM      9  CA  GLU     4     -10.759  -9.476   9.198  1.00  0.00     0.187 C 
BRANCH   9  10
ATOM     10  CB  GLU     4     -10.002 -10.063   7.996  1.00  0.00     0.045 C 
BRANCH  10  11
ATOM     11  CG  GLU     4      -9.557 -11.537   8.122  1.00  0.00     0.100 C 
BRANCH  11  12
ATOM     12  CD  GLU     4      -9.543 -12.069   9.554  1.00  0.00     0.185 C 
ATOM     13  OE1 GLU     4      -8.528 -11.817  10.255  1.00  0.00    -0.647 OA
ATOM     14  OE2 GLU     4     -10.255 -13.067   9.788  1.00  0.00    -0.647 OA
ENDBRANCH  11  12
ENDBRANCH  10  11
ENDBRANCH   9  10
BRANCH   9  15
ATOM     15  N   GLU     4     -12.101  -9.056   8.751  1.00  0.00    -0.229 NA
ATOM     16  C   PRO     3     -12.427  -8.002   8.012  1.00  0.00     0.272 C 
ATOM     17  O   PRO     3     -11.629  -7.419   7.277  1.00  0.00    -0.269 OA
BRANCH  16  18
ATOM     18  CA  PRO     3     -13.921  -7.845   7.721  1.00  0.00     0.165 C 
ATOM     19  N   PRO     3     -14.780  -8.903   8.293  1.00  0.00    -0.312 N 
ATOM     20  CD  PRO     3     -16.027  -8.299   8.828  1.00  0.00     0.105 C 
ATOM     21  C   ASP     2     -14.521 -10.220   8.189  1.00  0.00     0.257 C 
ATOM     22  CG  PRO     3     -15.976  -6.839   8.352  1.00  0.00     0.027 C 
ATOM     23  CB  PRO     3     -14.483  -6.536   8.271  1.00  0.00     0.034 C 
ATOM     24  O   ASP     2     -13.643 -10.626   7.413  1.00  0.00    -0.270 OA
BRANCH  21  25
ATOM     25  CA  ASP     2     -15.535 -11.241   8.752  1.00  0.00     0.195 C 
BRANCH  25  26
ATOM     26  CB  ASP     2     -15.326 -12.720   8.336  1.00  0.00     0.132 C 
BRANCH  26  27
ATOM     27  CG  ASP     2     -15.602 -13.658   9.527  1.00  0.00     0.188 C 
ATOM     28  OD2 ASP     2     -16.815 -13.859   9.788  1.00  0.00    -0.647 OA
ATOM     29  OD1 ASP     2     -14.742 -13.674  10.443  1.00  0.00    -0.647 OA
ENDBRANCH  26  27
ENDBRANCH  25  26
BRANCH  25  30
ATOM     30  N   ASP     2     -16.907 -10.971   8.290  1.00  0.00    -0.228 NA
ATOM     31  C   TYR     1     -17.970 -10.804   9.042  1.00  0.00     0.289 C 
ATOM     32  O   TYR     1     -18.023 -10.702  10.272  1.00  0.00    -0.268 OA
BRANCH  31  33
ATOM     33  CA  TYR     1     -19.252 -10.762   8.217  1.00  0.00     0.385 C 
ATOM     34  N   TYR     1     -19.358 -12.034   7.483  1.00  0.00     0.626 N 
BRANCH  33  35
ATOM     35  CB  TYR     1     -20.411 -10.549   9.188  1.00  0.00     0.075 C 
BRANCH  35  36
ATOM     36  CG  TYR     1     -21.050  -9.157   9.066  1.00  0.00    -0.019 A 
ATOM     37  CD2 TYR     1     -20.352  -8.009   9.406  1.00  0.00    -0.002 A 
ATOM     38  CE2 TYR     1     -20.901  -6.760   9.159  1.00  0.00     0.027 A 
ATOM     39  CZ  TYR     1     -22.163  -6.676   8.572  1.00  0.00     0.131 A 
ATOM     40  CE1 TYR     1     -22.871  -7.826   8.273  1.00  0.00     0.027 A 
ATOM     41  OH  TYR     1     -22.637  -5.486   8.151  1.00  0.00    -0.190 OA
ATOM     42  CD1 TYR     1     -22.322  -9.075   8.520  1.00  0.00    -0.002 A 
ENDBRANCH  35  36
ENDBRANCH  33  35
ENDBRANCH  31  33
ENDBRANCH  25  30
ENDBRANCH  21  25
ENDBRANCH  16  18
ENDBRANCH   9  15
ENDBRANCH   7   9
ENDBRANCH   5   6
BRANCH   5  43
ATOM     43  CB  TYR     5      -6.312  -7.578   9.847  1.00  0.00     0.060 C 
BRANCH  43  44
ATOM     44  CG  TYR     5      -6.127  -8.947   9.170  1.00  0.00    -0.020 A 
ATOM     45  CD2 TYR     5      -6.587  -9.164   7.877  1.00  0.00    -0.002 A 
ATOM     46  CE2 TYR     5      -6.408 -10.403   7.270  1.00  0.00     0.027 A 
ATOM     47  CZ  TYR     5      -5.771 -11.425   7.955  1.00  0.00     0.131 A 
ATOM     48  CE1 TYR     5      -5.292 -11.211   9.243  1.00  0.00     0.027 A 
ATOM     49  OH  TYR     5      -5.718 -12.668   7.429  1.00  0.00    -0.190 OA
ATOM     50  CD1 TYR     5      -5.480  -9.970   9.853  1.00  0.00    -0.002 A 
ENDBRANCH  43  44
ENDBRANCH   5  43
ENDBRANCH   3   5
ENDBRANCH   1   2
BRANCH   1  51
ATOM     51  CB  ARG     6      -8.681  -3.403   7.609  1.00  0.00     0.036 C 
BRANCH  51  52
ATOM     52  CG  ARG     6      -9.979  -2.705   8.022  1.00  0.00     0.029 C 
BRANCH  52  53
ATOM     53  CD  ARG     6     -11.184  -3.433   7.435  1.00  0.00     0.145 C 
BRANCH  53  54
ATOM     54  NE  ARG     6     -12.439  -2.754   7.797  1.00  0.00    -0.083 NA
ATOM     55  CZ  ARG     6     -12.931  -2.634   9.044  1.00  0.00     0.782 C 
ATOM     56  NH2 ARG     6     -14.123  -2.069   9.252  1.00  0.00     0.063 N 
ATOM     57  NH1 ARG     6     -12.276  -3.153  10.077  1.00  0.00     0.063 N 
ENDBRANCH  53  54
ENDBRANCH  52  53
ENDBRANCH  51  52
ENDBRANCH   1  51
BRANCH   1  58
ATOM     58  C   ARG     6      -7.890  -2.191   9.590  1.00  0.00     0.274 C 
ATOM     59  N   ASN     7      -7.459  -1.024   9.119  1.00  0.00    -0.228 NA
ATOM     60  O   ARG     6      -8.474  -2.349  10.663  1.00  0.00    -0.268 OA
BRANCH  59  61
ATOM     61  CA  ASN     7      -7.717   0.269   9.786  1.00  0.00     0.196 C 
BRANCH  61  62
ATOM     62  C   ASN     7      -7.345   1.459   8.880  1.00  0.00     0.275 C 
ATOM     63  N   PHE     8      -7.075   2.624   9.488  1.00  0.00    -0.228 NA
ATOM     64  O   ASN     7      -6.947   1.200   7.761  1.00  0.00    -0.268 OA
BRANCH  63  65
ATOM     65  CA  PHE     8      -6.617   3.854   8.797  1.00  0.00     0.191 C 
BRANCH  65  66
ATOM     66  CB  PHE     8      -5.829   3.439   7.547  1.00  0.00     0.060 C 
BRANCH  66  67
ATOM     67  CG  PHE     8      -4.312   3.689   7.640  1.00  0.00    -0.020 A 
ATOM     68  CD1 PHE     8      -3.467   2.671   8.059  1.00  0.00    -0.004 A 
ATOM     69  CE1 PHE     8      -2.108   2.927   8.240  1.00  0.00    -0.000 A 
ATOM     70  CZ  PHE     8      -1.607   4.194   7.985  1.00  0.00    -0.000 A 
ATOM     71  CE2 PHE     8      -2.450   5.212   7.552  1.00  0.00    -0.000 A 
ATOM     72  CD2 PHE     8      -3.809   4.956   7.371  1.00  0.00    -0.004 A 
ENDBRANCH  66  67
ENDBRANCH  65  66
BRANCH  65  73
ATOM     73  C   PHE     8      -7.735   4.866   8.458  1.00  0.00     0.275 C 
ATOM     74  N   TRP     9      -8.649   5.082   9.405  1.00  0.00    -0.228 NA
ATOM     75  O   PHE     8      -7.910   5.251   7.299  1.00  0.00    -0.268 OA
BRANCH  74  76
ATOM     76  CA  TRP     9      -9.703   6.116   9.262  1.00  0.00     0.191 C 
BRANCH  76  77
ATOM     77  CB  TRP     9     -10.955   5.657  10.028  1.00  0.00     0.062 C 
BRANCH  77  78
ATOM     78  CG  TRP     9     -12.229   5.711   9.186  1.00  0.00     0.001 A 
ATOM     79  CD1 TRP     9     -12.483   4.979   8.106  1.00  0.00     0.095 A 
ATOM     80  NE1 TRP     9     -13.529   5.480   7.460  1.00  0.00    -0.244 NA
ATOM     81  CE2 TRP     9     -13.989   6.536   8.115  1.00  0.00     0.081 A 
ATOM     82  CD2 TRP     9     -13.177   6.729   9.222  1.00  0.00     0.015 A 
ATOM     83  CZ2 TRP     9     -14.992   7.462   7.831  1.00  0.00     0.019 A 
ATOM     84  CE3 TRP     9     -13.341   7.838  10.038  1.00  0.00     0.001 A 
ATOM     85  CZ3 TRP     9     -14.332   8.770   9.749  1.00  0.00     0.000 A 
ATOM     86  CH2 TRP     9     -15.168   8.566   8.653  1.00  0.00     0.002 A 
ENDBRANCH  77  78
ENDBRANCH  76  77
BRANCH  76  87
ATOM     87  C   TRP     9      -9.268   7.538   9.682  1.00  0.00     0.275 C 
ATOM     88  O   TRP     9     -10.014   8.257  10.340  1.00  0.00    -0.268 OA
ATOM     89  N   GLY    10      -8.019   7.885   9.376  1.00  0.00    -0.226 NA
BRANCH  89  90
ATOM     90  CA  GLY    10      -7.400   9.192   9.732  1.00  0.00     0.218 C 
BRANCH  90  91
ATOM     91  C   GLY    10      -5.942   9.399   9.293  1.00  0.00     0.277 C 
ATOM     92  N   CYS    11      -5.087   9.657  10.281  1.00  0.00    -0.228 NA
ATOM     93  O   GLY    10      -5.655   9.488   8.104  1.00  0.00    -0.268 OA
BRANCH  92  94
ATOM     94  CA  CYS    11      -3.629   9.875  10.152  1.00  0.00     0.198 C 
BRANCH  94  95
ATOM     95  C   CYS    11      -2.939   8.497  10.131  1.00  0.00     0.275 C 
ATOM     96  O   CYS    11      -3.573   7.519   9.746  1.00  0.00    -0.268 OA
ATOM     97  N   GLY    12      -1.756   8.428  10.723  1.00  0.00    -0.225 NA
BRANCH  97  98
ATOM     98  CA  GLY    12      -0.972   7.187  10.806  1.00  0.00     0.226 C 
BRANCH  98  99
ATOM     99  C   GLY    12       0.494   7.523  10.448  1.00  0.00     0.211 C 
ATOM    100  O1  GLY    12       1.145   8.185  11.296  1.00  0.00    -0.646 OA
ATOM    101  O2  GLY    12       0.942   7.091   9.369  1.00  0.00    -0.646 OA
ENDBRANCH  98  99
ENDBRANCH  97  98
ENDBRANCH  94  95
BRANCH  94 102
ATOM    102  CB  CYS    11      -3.091  10.585  11.392  1.00  0.00     0.103 C 
ATOM    103  SG  CYS    11      -2.991  12.414  11.296  1.00  0.00    -0.080 SA
ENDBRANCH  94 102
ENDBRANCH  92  94
ENDBRANCH  90  91
ENDBRANCH  89  90
ENDBRANCH  76  87
ENDBRANCH  74  76
ENDBRANCH  65  73
ENDBRANCH  63  65
ENDBRANCH  61  62
BRANCH  61 104
ATOM    104  CB  ASN     7      -6.985   0.358  11.131  1.00  0.00     0.126 C 
BRANCH 104 105
ATOM    105  CG  ASN     7      -5.463   0.136  11.055  1.00  0.00     0.276 C 
ATOM    106  ND2 ASN     7      -4.715   1.202  11.223  1.00  0.00    -0.107 N 
ATOM    107  OD1 ASN     7      -4.921  -0.905  10.702  1.00  0.00    -0.269 OA
ENDBRANCH 104 105
ENDBRANCH  61 104
ENDBRANCH  59  61
ENDBRANCH   1  58
TORSDOF 42
ENDMDL
MODEL 9
REMARK VINA RESULT:      -2.2     10.888     20.180
REMARK WARNING: 32 MAX_TORS EXCEEDED!!!
REMARK  42 active torsions:
REMARK  status: ('A' for Active; 'I' for Inactive)
REMARK    1  A    between atoms: CA_2  and  CB_3 
REMARK    2  A    between atoms: CA_2  and  C_11 
REMARK    3  A    between atoms: CB_3  and  CG_4 
REMARK       I    between atoms: C_11  and  N_13 
REMARK    4  A    between atoms: N_13  and  CA_14 
REMARK    5  A    between atoms: CA_14  and  CB_15 
REMARK    6  A    between atoms: CA_14  and  C_19 
REMARK    7  A    between atoms: CB_15  and  CG_16 
REMARK       I    between atoms: C_19  and  N_21 
REMARK    8  A    between atoms: CA_22  and  C_26 
REMARK       I    between atoms: C_26  and  N_28 
REMARK    9  A    between atoms: N_28  and  CA_29 
REMARK   10  A    between atoms: CA_29  and  C_35 
REMARK   11  A    between atoms: CA_29  and  CB_30 
REMARK   12  A    between atoms: CB_30  and  CG_31 
REMARK   13  A    between atoms: CG_31  and  CD_32 
REMARK       I    between atoms: C_35  and  N_37 
REMARK   14  A    between atoms: N_37  and  CA_38 
REMARK   15  A    between atoms: CA_38  and  CB_39 
REMARK   16  A    between atoms: CA_38  and  C_47 
REMARK   17  A    between atoms: CB_39  and  CG_40 
REMARK       I    between atoms: C_47  and  N_49 
REMARK   18  A    between atoms: N_49  and  CA_50 
REMARK   19  A    between atoms: CA_50  and  CB_51 
REMARK   20  A    between atoms: CA_50  and  C_58 
REMARK   21  A    between atoms: CB_51  and  CG_52 
REMARK   22  A    between atoms: CG_52  and  CD_53 
REMARK   23  A    between atoms: CD_53  and  NE_54 
REMARK       I    between atoms: C_58  and  N_60 
REMARK   24  A    between atoms: N_60  and  CA_61 
REMARK   25  A    between atoms: CA_61  and  C_66 
REMARK   26  A    between atoms: CA_61  and  CB_62 
REMARK   27  A    between atoms: CB_62  and  CG_63 
REMARK       I    between atoms: C_66  and  N_68 
REMARK   28  A    between atoms: N_68  and  CA_69 
REMARK   29  A    between atoms: CA_69  and  CB_70 
REMARK   30  A    between atoms: CA_69  and  C_77 
REMARK   31  A    between atoms: CB_70  and  CG_71 
REMARK       I    between atoms: C_77  and  N_79 
REMARK   32  A    between atoms: N_79  and  CA_80 
REMARK   33  A    between atoms: CA_80  and  CB_81 
REMARK   34  A    between atoms: CA_80  and  C_91 
REMARK   35  A    between atoms: CB_81  and  CG_82 
REMARK       I    between atoms: C_91  and  N_93 
REMARK   36  A    between atoms: N_93  and  CA_94 
REMARK   37  A    between atoms: CA_94  and  C_95 
REMARK       I    between atoms: C_95  and  N_97 
REMARK   38  A    between atoms: N_97  and  CA_98 
REMARK   39  A    between atoms: CA_98  and  C_101 
REMARK   40  A    between atoms: CA_98  and  CB_99 
REMARK       I    between atoms: C_101  and  N_103 
REMARK   41  A    between atoms: N_103  and  CA_104 
REMARK   42  A    between atoms: CA_104  and  C_105 
ROOT
ATOM      1  CA  ARG     6      -7.687  -3.368   8.706  1.00  0.00     0.186 C 
ENDROOT
BRANCH   1   2
ATOM      2  N   ARG     6      -7.632  -4.682   9.387  1.00  0.00    -0.229 NA
ATOM      3  C   TYR     5      -7.979  -5.823   8.777  1.00  0.00     0.275 C 
ATOM      4  O   TYR     5      -8.339  -5.857   7.600  1.00  0.00    -0.268 OA
BRANCH   3   5
ATOM      5  CA  TYR     5      -7.804  -7.126   9.574  1.00  0.00     0.191 C 
BRANCH   5   6
ATOM      6  N   TYR     5      -8.822  -8.159   9.251  1.00  0.00    -0.228 NA
ATOM      7  C   GLU     4     -10.006  -8.245   9.879  1.00  0.00     0.274 C 
ATOM      8  O   GLU     4     -10.398  -7.395  10.667  1.00  0.00    -0.268 OA
BRANCH   7   9
ATOM      9  CA  GLU     4     -10.995  -9.289   9.320  1.00  0.00     0.187 C 
BRANCH   9  10
ATOM     10  CB  GLU     4     -10.489  -9.813   7.966  1.00  0.00     0.045 C 
BRANCH  10  11
ATOM     11  CG  GLU     4     -10.093 -11.306   7.916  1.00  0.00     0.100 C 
BRANCH  11  12
ATOM     12  CD  GLU     4     -10.788 -12.176   8.963  1.00  0.00     0.185 C 
ATOM     13  OE1 GLU     4     -11.992 -12.479   8.755  1.00  0.00    -0.647 OA
ATOM     14  OE2 GLU     4     -10.325 -12.138  10.120  1.00  0.00    -0.647 OA
ENDBRANCH  11  12
ENDBRANCH  10  11
ENDBRANCH   9  10
BRANCH   9  15
ATOM     15  N   GLU     4     -12.360  -8.759   9.139  1.00  0.00    -0.229 NA
ATOM     16  C   PRO     3     -12.742  -7.696   8.442  1.00  0.00     0.272 C 
ATOM     17  O   PRO     3     -12.066  -7.201   7.538  1.00  0.00    -0.269 OA
BRANCH  16  18
ATOM     18  CA  PRO     3     -14.245  -7.411   8.456  1.00  0.00     0.165 C 
ATOM     19  N   PRO     3     -15.086  -8.533   8.925  1.00  0.00    -0.312 N 
ATOM     20  CD  PRO     3     -16.178  -8.012   9.787  1.00  0.00     0.105 C 
ATOM     21  C   ASP     2     -14.955  -9.801   8.495  1.00  0.00     0.257 C 
ATOM     22  CG  PRO     3     -16.084  -6.485   9.637  1.00  0.00     0.027 C 
ATOM     23  CB  PRO     3     -14.603  -6.238   9.366  1.00  0.00     0.034 C 
ATOM     24  O   ASP     2     -14.248 -10.057   7.508  1.00  0.00    -0.270 OA
BRANCH  21  25
ATOM     25  CA  ASP     2     -15.947 -10.878   8.989  1.00  0.00     0.195 C 
BRANCH  25  26
ATOM     26  CB  ASP     2     -16.546 -10.665  10.404  1.00  0.00     0.132 C 
BRANCH  26  27
ATOM     27  CG  ASP     2     -17.551 -11.784  10.735  1.00  0.00     0.188 C 
ATOM     28  OD2 ASP     2     -17.088 -12.751  11.392  1.00  0.00    -0.647 OA
ATOM     29  OD1 ASP     2     -18.488 -11.961   9.917  1.00  0.00    -0.647 OA
ENDBRANCH  26  27
ENDBRANCH  25  26
BRANCH  25  30
ATOM     30  N   ASP     2     -15.313 -12.202   9.108  1.00  0.00    -0.228 NA
ATOM     31  C   TYR     1     -15.522 -13.244   8.338  1.00  0.00     0.289 C 
ATOM     32  O   TYR     1     -16.175 -13.298   7.291  1.00  0.00    -0.268 OA
BRANCH  31  33
ATOM     33  CA  TYR     1     -14.859 -14.503   8.889  1.00  0.00     0.385 C 
ATOM     34  N   TYR     1     -15.909 -15.333   9.503  1.00  0.00     0.626 N 
BRANCH  33  35
ATOM     35  CB  TYR     1     -14.169 -15.202   7.720  1.00  0.00     0.075 C 
BRANCH  35  36
ATOM     36  CG  TYR     1     -14.174 -16.734   7.849  1.00  0.00    -0.019 A 
ATOM     37  CD2 TYR     1     -13.132 -17.411   8.461  1.00  0.00    -0.002 A 
ATOM     38  CE2 TYR     1     -13.223 -18.777   8.685  1.00  0.00     0.027 A 
ATOM     39  CZ  TYR     1     -14.371 -19.457   8.281  1.00  0.00     0.131 A 
ATOM     40  CE1 TYR     1     -15.390 -18.781   7.633  1.00  0.00     0.027 A 
ATOM     41  OH  TYR     1     -14.566 -20.738   8.651  1.00  0.00    -0.190 OA
ATOM     42  CD1 TYR     1     -15.299 -17.416   7.409  1.00  0.00    -0.002 A 
ENDBRANCH  35  36
ENDBRANCH  33  35
ENDBRANCH  31  33
ENDBRANCH  25  30
ENDBRANCH  21  25
ENDBRANCH  16  18
ENDBRANCH   9  15
ENDBRANCH   7   9
ENDBRANCH   5   6
BRANCH   5  43
ATOM     43  CB  TYR     5      -6.390  -7.700   9.385  1.00  0.00     0.060 C 
BRANCH  43  44
ATOM     44  CG  TYR     5      -6.412  -9.180   8.969  1.00  0.00    -0.020 A 
ATOM     45  CD2 TYR     5      -6.821 -10.160   9.864  1.00  0.00    -0.002 A 
ATOM     46  CE2 TYR     5      -6.844 -11.496   9.476  1.00  0.00     0.027 A 
ATOM     47  CZ  TYR     5      -6.459 -11.852   8.193  1.00  0.00     0.131 A 
ATOM     48  CE1 TYR     5      -6.066 -10.876   7.285  1.00  0.00     0.027 A 
ATOM     49  OH  TYR     5      -6.346 -13.155   7.853  1.00  0.00    -0.190 OA
ATOM     50  CD1 TYR     5      -6.035  -9.538   7.679  1.00  0.00    -0.002 A 
ENDBRANCH  43  44
ENDBRANCH   5  43
ENDBRANCH   3   5
ENDBRANCH   1   2
BRANCH   1  51
ATOM     51  CB  ARG     6      -8.877  -3.239   7.760  1.00  0.00     0.036 C 
BRANCH  51  52
ATOM     52  CG  ARG     6     -10.179  -2.840   8.460  1.00  0.00     0.029 C 
BRANCH  52  53
ATOM     53  CD  ARG     6     -11.183  -3.988   8.409  1.00  0.00     0.145 C 
BRANCH  53  54
ATOM     54  NE  ARG     6     -12.550  -3.485   8.195  1.00  0.00    -0.083 NA
ATOM     55  CZ  ARG     6     -13.275  -2.789   9.090  1.00  0.00     0.782 C 
ATOM     56  NH2 ARG     6     -14.539  -2.452   8.823  1.00  0.00     0.063 N 
ATOM     57  NH1 ARG     6     -12.771  -2.503  10.285  1.00  0.00     0.063 N 
ENDBRANCH  53  54
ENDBRANCH  52  53
ENDBRANCH  51  52
ENDBRANCH   1  51
BRANCH   1  58
ATOM     58  C   ARG     6      -7.784  -2.198   9.694  1.00  0.00     0.274 C 
ATOM     59  N   ASN     7      -7.411  -1.012   9.221  1.00  0.00    -0.228 NA
ATOM     60  O   ARG     6      -8.184  -2.410  10.839  1.00  0.00    -0.268 OA
BRANCH  59  61
ATOM     61  CA  ASN     7      -7.526   0.244   9.990  1.00  0.00     0.196 C 
BRANCH  61  62
ATOM     62  C   ASN     7      -7.399   1.481   9.080  1.00  0.00     0.275 C 
ATOM     63  N   PHE     8      -7.049   2.635   9.667  1.00  0.00    -0.228 NA
ATOM     64  O   ASN     7      -7.238   1.280   7.891  1.00  0.00    -0.268 OA
BRANCH  63  65
ATOM     65  CA  PHE     8      -6.792   3.908   8.951  1.00  0.00     0.191 C 
BRANCH  65  66
ATOM     66  CB  PHE     8      -6.176   3.576   7.585  1.00  0.00     0.060 C 
BRANCH  66  67
ATOM     67  CG  PHE     8      -4.637   3.616   7.555  1.00  0.00    -0.020 A 
ATOM     68  CD1 PHE     8      -3.910   2.443   7.699  1.00  0.00    -0.004 A 
ATOM     69  CE1 PHE     8      -2.518   2.493   7.774  1.00  0.00    -0.000 A 
ATOM     70  CZ  PHE     8      -1.868   3.714   7.688  1.00  0.00    -0.000 A 
ATOM     71  CE2 PHE     8      -2.594   4.890   7.530  1.00  0.00    -0.000 A 
ATOM     72  CD2 PHE     8      -3.986   4.839   7.455  1.00  0.00    -0.004 A 
ENDBRANCH  66  67
ENDBRANCH  65  66
BRANCH  65  73
ATOM     73  C   PHE     8      -8.020   4.837   8.813  1.00  0.00     0.275 C 
ATOM     74  N   TRP     9      -8.724   5.059   9.924  1.00  0.00    -0.228 NA
ATOM     75  O   PHE     8      -8.461   5.142   7.702  1.00  0.00    -0.268 OA
BRANCH  74  76
ATOM     76  CA  TRP     9      -9.850   6.025   9.963  1.00  0.00     0.191 C 
BRANCH  76  77
ATOM     77  CB  TRP     9     -10.924   5.496  10.927  1.00  0.00     0.062 C 
BRANCH  77  78
ATOM     78  CG  TRP     9     -11.679   4.285  10.380  1.00  0.00     0.001 A 
ATOM     79  CD1 TRP     9     -11.140   3.120  10.032  1.00  0.00     0.095 A 
ATOM     80  NE1 TRP     9     -12.016   2.411   9.333  1.00  0.00    -0.244 NA
ATOM     81  CE2 TRP     9     -13.150   3.088   9.227  1.00  0.00     0.081 A 
ATOM     82  CD2 TRP     9     -12.974   4.302   9.872  1.00  0.00     0.015 A 
ATOM     83  CZ2 TRP     9     -14.337   2.845   8.535  1.00  0.00     0.019 A 
ATOM     84  CE3 TRP     9     -13.956   5.280   9.825  1.00  0.00     0.001 A 
ATOM     85  CZ3 TRP     9     -15.135   5.045   9.125  1.00  0.00     0.000 A 
ATOM     86  CH2 TRP     9     -15.327   3.816   8.497  1.00  0.00     0.002 A 
ENDBRANCH  77  78
ENDBRANCH  76  77
BRANCH  76  87
ATOM     87  C   TRP     9      -9.439   7.475  10.307  1.00  0.00     0.275 C 
ATOM     88  O   TRP     9     -10.086   8.138  11.113  1.00  0.00    -0.268 OA
ATOM     89  N   GLY    10      -8.305   7.910   9.762  1.00  0.00    -0.226 NA
BRANCH  89  90
ATOM     90  CA  GLY    10      -7.720   9.258  10.006  1.00  0.00     0.218 C 
BRANCH  90  91
ATOM     91  C   GLY    10      -6.378   9.554   9.317  1.00  0.00     0.277 C 
ATOM     92  N   CYS    11      -5.700  10.582   9.825  1.00  0.00    -0.228 NA
ATOM     93  O   GLY    10      -6.071   8.982   8.278  1.00  0.00    -0.268 OA
BRANCH  92  94
ATOM     94  CA  CYS    11      -4.377  11.074   9.377  1.00  0.00     0.198 C 
BRANCH  94  95
ATOM     95  C   CYS    11      -3.293  10.333  10.184  1.00  0.00     0.275 C 
ATOM     96  O   CYS    11      -3.093  10.657  11.350  1.00  0.00    -0.268 OA
ATOM     97  N   GLY    12      -2.508   9.520   9.494  1.00  0.00    -0.225 NA
BRANCH  97  98
ATOM     98  CA  GLY    12      -1.414   8.749  10.107  1.00  0.00     0.226 C 
BRANCH  98  99
ATOM     99  C   GLY    12      -0.727   7.926   8.993  1.00  0.00     0.211 C 
ATOM    100  O1  GLY    12       0.115   7.069   9.363  1.00  0.00    -0.646 OA
ATOM    101  O2  GLY    12      -1.076   8.137   7.817  1.00  0.00    -0.646 OA
ENDBRANCH  98  99
ENDBRANCH  97  98
ENDBRANCH  94  95
BRANCH  94 102
ATOM    102  CB  CYS    11      -4.218  12.550   9.731  1.00  0.00     0.103 C 
ATOM    103  SG  CYS    11      -5.424  13.700   8.965  1.00  0.00    -0.080 SA
ENDBRANCH  94 102
ENDBRANCH  92  94
ENDBRANCH  90  91
ENDBRANCH  89  90
ENDBRANCH  76  87
ENDBRANCH  74  76
ENDBRANCH  65  73
ENDBRANCH  63  65
ENDBRANCH  61  62
BRANCH  61 104
ATOM    104  CB  ASN     7      -6.499   0.296  11.128  1.00  0.00     0.126 C 
BRANCH 104 105
ATOM    105  CG  ASN     7      -5.030   0.365  10.670  1.00  0.00     0.276 C 
ATOM    106  ND2 ASN     7      -4.388   1.475  10.956  1.00  0.00    -0.107 N 
ATOM    107  OD1 ASN     7      -4.481  -0.453   9.943  1.00  0.00    -0.269 OA
ENDBRANCH 104 105
ENDBRANCH  61 104
ENDBRANCH  59  61
ENDBRANCH   1  58
TORSDOF 42
ENDMDL
