MODEL 1
REMARK VINA RESULT:      -6.5      0.000      0.000
REMARK WARNING: 32 MAX_TORS EXCEEDED!!!
REMARK  42 active torsions:
REMARK  status: ('A' for Active; 'I' for Inactive)
REMARK    1  A    between atoms: CA_2  and  CB_3 
REMARK    2  A    between atoms: CA_2  and  C_11 
REMARK    3  A    between atoms: CB_3  and  CG_4 
REMARK       I    between atoms: C_11  and  N_13 
REMARK    4  A    between atoms: N_13  and  CA_14 
REMARK    5  A    between atoms: CA_14  and  CB_15 
REMARK    6  A    between atoms: CA_14  and  C_19 
REMARK    7  A    between atoms: CB_15  and  CG_16 
REMARK       I    between atoms: C_19  and  N_21 
REMARK    8  A    between atoms: CA_22  and  C_26 
REMARK       I    between atoms: C_26  and  N_28 
REMARK    9  A    between atoms: N_28  and  CA_29 
REMARK   10  A    between atoms: CA_29  and  C_35 
REMARK   11  A    between atoms: CA_29  and  CB_30 
REMARK   12  A    between atoms: CB_30  and  CG_31 
REMARK   13  A    between atoms: CG_31  and  CD_32 
REMARK       I    between atoms: C_35  and  N_37 
REMARK   14  A    between atoms: N_37  and  CA_38 
REMARK   15  A    between atoms: CA_38  and  CB_39 
REMARK   16  A    between atoms: CA_38  and  C_47 
REMARK   17  A    between atoms: CB_39  and  CG_40 
REMARK       I    between atoms: C_47  and  N_49 
REMARK   18  A    between atoms: N_49  and  CA_50 
REMARK   19  A    between atoms: CA_50  and  CB_51 
REMARK   20  A    between atoms: CA_50  and  C_58 
REMARK   21  A    between atoms: CB_51  and  CG_52 
REMARK   22  A    between atoms: CG_52  and  CD_53 
REMARK   23  A    between atoms: CD_53  and  NE_54 
REMARK       I    between atoms: C_58  and  N_60 
REMARK   24  A    between atoms: N_60  and  CA_61 
REMARK   25  A    between atoms: CA_61  and  C_66 
REMARK   26  A    between atoms: CA_61  and  CB_62 
REMARK   27  A    between atoms: CB_62  and  CG_63 
REMARK       I    between atoms: C_66  and  N_68 
REMARK   28  A    between atoms: N_68  and  CA_69 
REMARK   29  A    between atoms: CA_69  and  CB_70 
REMARK   30  A    between atoms: CA_69  and  C_77 
REMARK   31  A    between atoms: CB_70  and  CG_71 
REMARK       I    between atoms: C_77  and  N_79 
REMARK   32  A    between atoms: N_79  and  CA_80 
REMARK   33  A    between atoms: CA_80  and  CB_81 
REMARK   34  A    between atoms: CA_80  and  C_91 
REMARK   35  A    between atoms: CB_81  and  CG_82 
REMARK       I    between atoms: C_91  and  N_93 
REMARK   36  A    between atoms: N_93  and  CA_94 
REMARK   37  A    between atoms: CA_94  and  C_95 
REMARK       I    between atoms: C_95  and  N_97 
REMARK   38  A    between atoms: N_97  and  CA_98 
REMARK   39  A    between atoms: CA_98  and  C_101 
REMARK   40  A    between atoms: CA_98  and  CB_99 
REMARK       I    between atoms: C_101  and  N_103 
REMARK   41  A    between atoms: N_103  and  CA_104 
REMARK   42  A    between atoms: CA_104  and  C_105 
ROOT
ATOM      1  CA  ARG     6       8.886 -17.261   2.534  1.00  0.00     0.186 C 
ENDROOT
BRANCH   1   2
ATOM      2  N   ARG     6       9.821 -17.287   3.683  1.00  0.00    -0.229 NA
ATOM      3  C   TYR     5       9.534 -16.708   4.856  1.00  0.00     0.275 C 
ATOM      4  O   TYR     5       8.461 -16.141   5.065  1.00  0.00    -0.268 OA
BRANCH   3   5
ATOM      5  CA  TYR     5      10.560 -16.873   5.989  1.00  0.00     0.191 C 
BRANCH   5   6
ATOM      6  N   TYR     5      11.835 -16.152   5.743  1.00  0.00    -0.228 NA
ATOM      7  C   GLU     4      11.889 -14.868   5.350  1.00  0.00     0.274 C 
ATOM      8  O   GLU     4      10.897 -14.152   5.299  1.00  0.00    -0.268 OA
BRANCH   7   9
ATOM      9  CA  GLU     4      13.295 -14.240   5.280  1.00  0.00     0.187 C 
BRANCH   9  10
ATOM     10  CB  GLU     4      14.044 -14.488   6.600  1.00  0.00     0.045 C 
BRANCH  10  11
ATOM     11  CG  GLU     4      15.221 -15.486   6.541  1.00  0.00     0.100 C 
BRANCH  11  12
ATOM     12  CD  GLU     4      15.576 -15.958   5.131  1.00  0.00     0.185 C 
ATOM     13  OE1 GLU     4      15.260 -17.136   4.819  1.00  0.00    -0.647 OA
ATOM     14  OE2 GLU     4      16.523 -15.375   4.566  1.00  0.00    -0.647 OA
ENDBRANCH  11  12
ENDBRANCH  10  11
ENDBRANCH   9  10
BRANCH   9  15
ATOM     15  N   GLU     4      13.272 -12.788   5.017  1.00  0.00    -0.229 NA
ATOM     16  C   PRO     3      14.258 -11.912   5.169  1.00  0.00     0.272 C 
ATOM     17  O   PRO     3      15.448 -12.230   5.197  1.00  0.00    -0.269 OA
BRANCH  16  18
ATOM     18  CA  PRO     3      13.908 -10.467   4.808  1.00  0.00     0.165 C 
ATOM     19  N   PRO     3      13.906  -9.524   5.947  1.00  0.00    -0.312 N 
ATOM     20  CD  PRO     3      14.513  -8.235   5.529  1.00  0.00     0.105 C 
ATOM     21  C   ASP     2      13.299  -9.768   7.123  1.00  0.00     0.257 C 
ATOM     22  CG  PRO     3      14.685  -8.371   4.009  1.00  0.00     0.027 C 
ATOM     23  CB  PRO     3      14.886  -9.869   3.799  1.00  0.00     0.034 C 
ATOM     24  O   ASP     2      12.517 -10.724   7.238  1.00  0.00    -0.270 OA
BRANCH  21  25
ATOM     25  CA  ASP     2      13.289  -8.674   8.215  1.00  0.00     0.195 C 
BRANCH  25  26
ATOM     26  CB  ASP     2      13.240  -9.167   9.684  1.00  0.00     0.132 C 
BRANCH  26  27
ATOM     27  CG  ASP     2      14.665  -9.412  10.216  1.00  0.00     0.188 C 
ATOM     28  OD2 ASP     2      15.141 -10.552   9.983  1.00  0.00    -0.647 OA
ATOM     29  OD1 ASP     2      14.996  -8.784  11.252  1.00  0.00    -0.647 OA
ENDBRANCH  26  27
ENDBRANCH  25  26
BRANCH  25  30
ATOM     30  N   ASP     2      12.095  -7.817   8.127  1.00  0.00    -0.228 NA
ATOM     31  C   TYR     1      12.057  -6.510   8.244  1.00  0.00     0.289 C 
ATOM     32  O   TYR     1      13.008  -5.724   8.313  1.00  0.00    -0.268 OA
BRANCH  31  33
ATOM     33  CA  TYR     1      10.627  -5.984   8.317  1.00  0.00     0.385 C 
ATOM     34  N   TYR     1       9.950  -6.672   9.429  1.00  0.00     0.626 N 
BRANCH  33  35
ATOM     35  CB  TYR     1      10.707  -4.473   8.527  1.00  0.00     0.075 C 
BRANCH  35  36
ATOM     36  CG  TYR     1      10.202  -3.671   7.318  1.00  0.00    -0.019 A 
ATOM     37  CD2 TYR     1       8.847  -3.516   7.068  1.00  0.00    -0.002 A 
ATOM     38  CE2 TYR     1       8.416  -2.677   6.052  1.00  0.00     0.027 A 
ATOM     39  CZ  TYR     1       9.362  -1.999   5.283  1.00  0.00     0.131 A 
ATOM     40  CE1 TYR     1      10.713  -2.191   5.511  1.00  0.00     0.027 A 
ATOM     41  OH  TYR     1       8.972  -1.041   4.419  1.00  0.00    -0.190 OA
ATOM     42  CD1 TYR     1      11.144  -3.030   6.527  1.00  0.00    -0.002 A 
ENDBRANCH  35  36
ENDBRANCH  33  35
ENDBRANCH  31  33
ENDBRANCH  25  30
ENDBRANCH  21  25
ENDBRANCH  16  18
ENDBRANCH   9  15
ENDBRANCH   7   9
ENDBRANCH   5   6
BRANCH   5  43
ATOM     43  CB  TYR     5       9.962 -16.443   7.339  1.00  0.00     0.060 C 
BRANCH  43  44
ATOM     44  CG  TYR     5      10.677 -17.101   8.530  1.00  0.00    -0.020 A 
ATOM     45  CD2 TYR     5      10.874 -16.399   9.713  1.00  0.00    -0.002 A 
ATOM     46  CE2 TYR     5      11.516 -17.005  10.788  1.00  0.00     0.027 A 
ATOM     47  CZ  TYR     5      11.962 -18.314  10.681  1.00  0.00     0.131 A 
ATOM     48  CE1 TYR     5      11.753 -19.029   9.508  1.00  0.00     0.027 A 
ATOM     49  OH  TYR     5      12.706 -18.862  11.666  1.00  0.00    -0.190 OA
ATOM     50  CD1 TYR     5      11.117 -18.416   8.428  1.00  0.00    -0.002 A 
ENDBRANCH  43  44
ENDBRANCH   5  43
ENDBRANCH   3   5
ENDBRANCH   1   2
BRANCH   1  51
ATOM     51  CB  ARG     6       9.596 -17.363   1.188  1.00  0.00     0.036 C 
BRANCH  51  52
ATOM     52  CG  ARG     6       9.918 -18.800   0.771  1.00  0.00     0.029 C 
BRANCH  52  53
ATOM     53  CD  ARG     6      11.346 -18.892   0.241  1.00  0.00     0.145 C 
BRANCH  53  54
ATOM     54  NE  ARG     6      12.287 -18.199   1.137  1.00  0.00    -0.083 NA
ATOM     55  CZ  ARG     6      13.125 -17.209   0.775  1.00  0.00     0.782 C 
ATOM     56  NH2 ARG     6      13.998 -16.705   1.650  1.00  0.00     0.063 N 
ATOM     57  NH1 ARG     6      13.153 -16.780  -0.482  1.00  0.00     0.063 N 
ENDBRANCH  53  54
ENDBRANCH  52  53
ENDBRANCH  51  52
ENDBRANCH   1  51
BRANCH   1  58
ATOM     58  C   ARG     6       7.866 -18.406   2.581  1.00  0.00     0.274 C 
ATOM     59  N   ASN     7       8.170 -19.416   3.392  1.00  0.00    -0.228 NA
ATOM     60  O   ARG     6       6.853 -18.338   1.884  1.00  0.00    -0.268 OA
BRANCH  59  61
ATOM     61  CA  ASN     7       7.268 -20.558   3.643  1.00  0.00     0.196 C 
BRANCH  61  62
ATOM     62  C   ASN     7       7.245 -20.947   5.134  1.00  0.00     0.275 C 
ATOM     63  N   PHE     8       6.730 -20.049   5.988  1.00  0.00    -0.228 NA
ATOM     64  O   ASN     7       7.320 -22.131   5.400  1.00  0.00    -0.268 OA
BRANCH  63  65
ATOM     65  CA  PHE     8       6.543 -20.272   7.442  1.00  0.00     0.191 C 
BRANCH  65  66
ATOM     66  CB  PHE     8       6.909 -18.975   8.178  1.00  0.00     0.060 C 
BRANCH  66  67
ATOM     67  CG  PHE     8       7.652 -19.188   9.510  1.00  0.00    -0.020 A 
ATOM     68  CD1 PHE     8       8.259 -20.407   9.778  1.00  0.00    -0.004 A 
ATOM     69  CE1 PHE     8       8.843 -20.633  11.025  1.00  0.00    -0.000 A 
ATOM     70  CZ  PHE     8       8.826 -19.632  11.983  1.00  0.00    -0.000 A 
ATOM     71  CE2 PHE     8       8.230 -18.405  11.712  1.00  0.00    -0.000 A 
ATOM     72  CD2 PHE     8       7.647 -18.179  10.466  1.00  0.00    -0.004 A 
ENDBRANCH  66  67
ENDBRANCH  65  66
BRANCH  65  73
ATOM     73  C   PHE     8       5.144 -20.784   7.850  1.00  0.00     0.275 C 
ATOM     74  N   TRP     9       4.104 -20.042   7.464  1.00  0.00    -0.228 NA
ATOM     75  O   PHE     8       5.016 -21.677   8.692  1.00  0.00    -0.268 OA
BRANCH  74  76
ATOM     76  CA  TRP     9       2.702 -20.478   7.679  1.00  0.00     0.191 C 
BRANCH  76  77
ATOM     77  CB  TRP     9       2.035 -19.523   8.682  1.00  0.00     0.062 C 
BRANCH  77  78
ATOM     78  CG  TRP     9       1.937 -20.103  10.092  1.00  0.00     0.001 A 
ATOM     79  CD1 TRP     9       2.910 -20.119  10.999  1.00  0.00     0.095 A 
ATOM     80  NE1 TRP     9       2.589 -20.946  11.986  1.00  0.00    -0.244 NA
ATOM     81  CE2 TRP     9       1.395 -21.470  11.754  1.00  0.00     0.081 A 
ATOM     82  CD2 TRP     9       0.945 -20.968  10.543  1.00  0.00     0.015 A 
ATOM     83  CZ2 TRP     9       0.644 -22.443  12.413  1.00  0.00     0.019 A 
ATOM     84  CE3 TRP     9      -0.232 -21.431   9.974  1.00  0.00     0.001 A 
ATOM     85  CZ3 TRP     9      -0.976 -22.411  10.624  1.00  0.00     0.000 A 
ATOM     86  CH2 TRP     9      -0.541 -22.899  11.855  1.00  0.00     0.002 A 
ENDBRANCH  77  78
ENDBRANCH  76  77
BRANCH  76  87
ATOM     87  C   TRP     9       1.869 -20.619   6.385  1.00  0.00     0.275 C 
ATOM     88  O   TRP     9       2.395 -20.965   5.331  1.00  0.00    -0.268 OA
ATOM     89  N   GLY    10       0.554 -20.445   6.510  1.00  0.00    -0.226 NA
BRANCH  89  90
ATOM     90  CA  GLY    10      -0.420 -20.581   5.392  1.00  0.00     0.218 C 
BRANCH  90  91
ATOM     91  C   GLY    10      -1.644 -19.653   5.438  1.00  0.00     0.277 C 
ATOM     92  N   CYS    11      -1.765 -18.934   6.553  1.00  0.00    -0.228 NA
ATOM     93  O   GLY    10      -2.513 -19.725   4.576  1.00  0.00    -0.268 OA
BRANCH  92  94
ATOM     94  CA  CYS    11      -2.827 -17.949   6.856  1.00  0.00     0.198 C 
BRANCH  94  95
ATOM     95  C   CYS    11      -2.217 -16.538   6.745  1.00  0.00     0.275 C 
ATOM     96  O   CYS    11      -1.198 -16.380   6.081  1.00  0.00    -0.268 OA
ATOM     97  N   GLY    12      -2.731 -15.617   7.547  1.00  0.00    -0.225 NA
BRANCH  97  98
ATOM     98  CA  GLY    12      -2.254 -14.225   7.579  1.00  0.00     0.226 C 
BRANCH  98  99
ATOM     99  C   GLY    12      -3.459 -13.315   7.912  1.00  0.00     0.211 C 
ATOM    100  O1  GLY    12      -3.392 -12.659   8.982  1.00  0.00    -0.646 OA
ATOM    101  O2  GLY    12      -4.391 -13.263   7.088  1.00  0.00    -0.646 OA
ENDBRANCH  98  99
ENDBRANCH  97  98
ENDBRANCH  94  95
BRANCH  94 102
ATOM    102  CB  CYS    11      -3.277 -18.090   8.308  1.00  0.00     0.103 C 
ATOM    103  SG  CYS    11      -5.064 -18.405   8.574  1.00  0.00    -0.080 SA
ENDBRANCH  94 102
ENDBRANCH  92  94
ENDBRANCH  90  91
ENDBRANCH  89  90
ENDBRANCH  76  87
ENDBRANCH  74  76
ENDBRANCH  65  73
ENDBRANCH  63  65
ENDBRANCH  61  62
BRANCH  61 104
ATOM    104  CB  ASN     7       7.641 -21.764   2.771  1.00  0.00     0.126 C 
BRANCH 104 105
ATOM    105  CG  ASN     7       9.153 -21.969   2.562  1.00  0.00     0.276 C 
ATOM    106  ND2 ASN     7       9.513 -22.453   1.396  1.00  0.00    -0.107 N 
ATOM    107  OD1 ASN     7      10.003 -21.864   3.436  1.00  0.00    -0.269 OA
ENDBRANCH 104 105
ENDBRANCH  61 104
ENDBRANCH  59  61
ENDBRANCH   1  58
TORSDOF 42
ENDMDL
MODEL 2
REMARK VINA RESULT:      -6.3      2.978      3.957
REMARK WARNING: 32 MAX_TORS EXCEEDED!!!
REMARK  42 active torsions:
REMARK  status: ('A' for Active; 'I' for Inactive)
REMARK    1  A    between atoms: CA_2  and  CB_3 
REMARK    2  A    between atoms: CA_2  and  C_11 
REMARK    3  A    between atoms: CB_3  and  CG_4 
REMARK       I    between atoms: C_11  and  N_13 
REMARK    4  A    between atoms: N_13  and  CA_14 
REMARK    5  A    between atoms: CA_14  and  CB_15 
REMARK    6  A    between atoms: CA_14  and  C_19 
REMARK    7  A    between atoms: CB_15  and  CG_16 
REMARK       I    between atoms: C_19  and  N_21 
REMARK    8  A    between atoms: CA_22  and  C_26 
REMARK       I    between atoms: C_26  and  N_28 
REMARK    9  A    between atoms: N_28  and  CA_29 
REMARK   10  A    between atoms: CA_29  and  C_35 
REMARK   11  A    between atoms: CA_29  and  CB_30 
REMARK   12  A    between atoms: CB_30  and  CG_31 
REMARK   13  A    between atoms: CG_31  and  CD_32 
REMARK       I    between atoms: C_35  and  N_37 
REMARK   14  A    between atoms: N_37  and  CA_38 
REMARK   15  A    between atoms: CA_38  and  CB_39 
REMARK   16  A    between atoms: CA_38  and  C_47 
REMARK   17  A    between atoms: CB_39  and  CG_40 
REMARK       I    between atoms: C_47  and  N_49 
REMARK   18  A    between atoms: N_49  and  CA_50 
REMARK   19  A    between atoms: CA_50  and  CB_51 
REMARK   20  A    between atoms: CA_50  and  C_58 
REMARK   21  A    between atoms: CB_51  and  CG_52 
REMARK   22  A    between atoms: CG_52  and  CD_53 
REMARK   23  A    between atoms: CD_53  and  NE_54 
REMARK       I    between atoms: C_58  and  N_60 
REMARK   24  A    between atoms: N_60  and  CA_61 
REMARK   25  A    between atoms: CA_61  and  C_66 
REMARK   26  A    between atoms: CA_61  and  CB_62 
REMARK   27  A    between atoms: CB_62  and  CG_63 
REMARK       I    between atoms: C_66  and  N_68 
REMARK   28  A    between atoms: N_68  and  CA_69 
REMARK   29  A    between atoms: CA_69  and  CB_70 
REMARK   30  A    between atoms: CA_69  and  C_77 
REMARK   31  A    between atoms: CB_70  and  CG_71 
REMARK       I    between atoms: C_77  and  N_79 
REMARK   32  A    between atoms: N_79  and  CA_80 
REMARK   33  A    between atoms: CA_80  and  CB_81 
REMARK   34  A    between atoms: CA_80  and  C_91 
REMARK   35  A    between atoms: CB_81  and  CG_82 
REMARK       I    between atoms: C_91  and  N_93 
REMARK   36  A    between atoms: N_93  and  CA_94 
REMARK   37  A    between atoms: CA_94  and  C_95 
REMARK       I    between atoms: C_95  and  N_97 
REMARK   38  A    between atoms: N_97  and  CA_98 
REMARK   39  A    between atoms: CA_98  and  C_101 
REMARK   40  A    between atoms: CA_98  and  CB_99 
REMARK       I    between atoms: C_101  and  N_103 
REMARK   41  A    between atoms: N_103  and  CA_104 
REMARK   42  A    between atoms: CA_104  and  C_105 
ROOT
ATOM      1  CA  ARG     6       7.842 -18.342   2.260  1.00  0.00     0.186 C 
ENDROOT
BRANCH   1   2
ATOM      2  N   ARG     6       9.021 -17.907   3.045  1.00  0.00    -0.229 NA
ATOM      3  C   TYR     5       8.937 -17.572   4.340  1.00  0.00     0.275 C 
ATOM      4  O   TYR     5       7.880 -17.632   4.968  1.00  0.00    -0.268 OA
BRANCH   3   5
ATOM      5  CA  TYR     5      10.248 -17.210   5.056  1.00  0.00     0.191 C 
BRANCH   5   6
ATOM      6  N   TYR     5      11.379 -16.953   4.128  1.00  0.00    -0.228 NA
ATOM      7  C   GLU     4      12.588 -17.522   4.270  1.00  0.00     0.274 C 
ATOM      8  O   GLU     4      12.812 -18.401   5.092  1.00  0.00    -0.268 OA
BRANCH   7   9
ATOM      9  CA  GLU     4      13.600 -17.254   3.137  1.00  0.00     0.187 C 
BRANCH   9  10
ATOM     10  CB  GLU     4      14.141 -18.586   2.595  1.00  0.00     0.045 C 
BRANCH  10  11
ATOM     11  CG  GLU     4      13.727 -18.956   1.154  1.00  0.00     0.100 C 
BRANCH  11  12
ATOM     12  CD  GLU     4      13.779 -20.453   0.849  1.00  0.00     0.185 C 
ATOM     13  OE1 GLU     4      14.750 -21.104   1.315  1.00  0.00    -0.647 OA
ATOM     14  OE2 GLU     4      13.179 -20.838  -0.175  1.00  0.00    -0.647 OA
ENDBRANCH  11  12
ENDBRANCH  10  11
ENDBRANCH   9  10
BRANCH   9  15
ATOM     15  N   GLU     4      14.741 -16.419   3.561  1.00  0.00    -0.229 NA
ATOM     16  C   PRO     3      15.559 -15.703   2.799  1.00  0.00     0.272 C 
ATOM     17  O   PRO     3      15.270 -15.327   1.662  1.00  0.00    -0.269 OA
BRANCH  16  18
ATOM     18  CA  PRO     3      16.654 -14.943   3.552  1.00  0.00     0.165 C 
ATOM     19  N   PRO     3      16.185 -14.182   4.730  1.00  0.00    -0.312 N 
ATOM     20  CD  PRO     3      17.166 -14.320   5.836  1.00  0.00     0.105 C 
ATOM     21  C   ASP     2      15.112 -13.370   4.721  1.00  0.00     0.257 C 
ATOM     22  CG  PRO     3      18.367 -15.029   5.192  1.00  0.00     0.027 C 
ATOM     23  CB  PRO     3      17.741 -15.873   4.086  1.00  0.00     0.034 C 
ATOM     24  O   ASP     2      14.577 -13.050   3.649  1.00  0.00    -0.270 OA
BRANCH  21  25
ATOM     25  CA  ASP     2      14.764 -12.557   5.988  1.00  0.00     0.195 C 
BRANCH  25  26
ATOM     26  CB  ASP     2      13.529 -13.034   6.796  1.00  0.00     0.132 C 
BRANCH  26  27
ATOM     27  CG  ASP     2      13.857 -13.080   8.301  1.00  0.00     0.188 C 
ATOM     28  OD2 ASP     2      13.490 -12.078   8.966  1.00  0.00    -0.647 OA
ATOM     29  OD1 ASP     2      14.881 -13.727   8.636  1.00  0.00    -0.647 OA
ENDBRANCH  26  27
ENDBRANCH  25  26
BRANCH  25  30
ATOM     30  N   ASP     2      14.416 -11.161   5.672  1.00  0.00    -0.228 NA
ATOM     31  C   TYR     1      15.252 -10.189   5.389  1.00  0.00     0.289 C 
ATOM     32  O   TYR     1      16.470 -10.265   5.196  1.00  0.00    -0.268 OA
BRANCH  31  33
ATOM     33  CA  TYR     1      14.554  -8.834   5.330  1.00  0.00     0.385 C 
ATOM     34  N   TYR     1      14.070  -8.517   6.684  1.00  0.00     0.626 N 
BRANCH  33  35
ATOM     35  CB  TYR     1      15.573  -7.818   4.822  1.00  0.00     0.075 C 
BRANCH  35  36
ATOM     36  CG  TYR     1      15.238  -7.279   3.422  1.00  0.00    -0.019 A 
ATOM     37  CD2 TYR     1      14.341  -7.932   2.592  1.00  0.00    -0.002 A 
ATOM     38  CE2 TYR     1      13.953  -7.355   1.392  1.00  0.00     0.027 A 
ATOM     39  CZ  TYR     1      14.482  -6.117   1.031  1.00  0.00     0.131 A 
ATOM     40  CE1 TYR     1      15.408  -5.489   1.845  1.00  0.00     0.027 A 
ATOM     41  OH  TYR     1      13.985  -5.450  -0.030  1.00  0.00    -0.190 OA
ATOM     42  CD1 TYR     1      15.796  -6.066   3.045  1.00  0.00    -0.002 A 
ENDBRANCH  35  36
ENDBRANCH  33  35
ENDBRANCH  31  33
ENDBRANCH  25  30
ENDBRANCH  21  25
ENDBRANCH  16  18
ENDBRANCH   9  15
ENDBRANCH   7   9
ENDBRANCH   5   6
BRANCH   5  43
ATOM     43  CB  TYR     5      10.048 -16.004   5.990  1.00  0.00     0.060 C 
BRANCH  43  44
ATOM     44  CG  TYR     5      10.530 -16.289   7.422  1.00  0.00    -0.020 A 
ATOM     45  CD2 TYR     5      11.886 -16.285   7.726  1.00  0.00    -0.002 A 
ATOM     46  CE2 TYR     5      12.312 -16.537   9.027  1.00  0.00     0.027 A 
ATOM     47  CZ  TYR     5      11.383 -16.793  10.023  1.00  0.00     0.131 A 
ATOM     48  CE1 TYR     5      10.024 -16.782   9.731  1.00  0.00     0.027 A 
ATOM     49  OH  TYR     5      11.792 -17.175  11.253  1.00  0.00    -0.190 OA
ATOM     50  CD1 TYR     5       9.599 -16.538   8.425  1.00  0.00    -0.002 A 
ENDBRANCH  43  44
ENDBRANCH   5  43
ENDBRANCH   3   5
ENDBRANCH   1   2
BRANCH   1  51
ATOM     51  CB  ARG     6       8.122 -18.415   0.762  1.00  0.00     0.036 C 
BRANCH  51  52
ATOM     52  CG  ARG     6       7.143 -17.599  -0.086  1.00  0.00     0.029 C 
BRANCH  52  53
ATOM     53  CD  ARG     6       7.822 -16.340  -0.618  1.00  0.00     0.145 C 
BRANCH  53  54
ATOM     54  NE  ARG     6       8.020 -15.354   0.456  1.00  0.00    -0.083 NA
ATOM     55  CZ  ARG     6       9.200 -15.047   1.028  1.00  0.00     0.782 C 
ATOM     56  NH2 ARG     6       9.256 -14.196   2.054  1.00  0.00     0.063 N 
ATOM     57  NH1 ARG     6      10.314 -15.654   0.633  1.00  0.00     0.063 N 
ENDBRANCH  53  54
ENDBRANCH  52  53
ENDBRANCH  51  52
ENDBRANCH   1  51
BRANCH   1  58
ATOM     58  C   ARG     6       7.337 -19.728   2.680  1.00  0.00     0.274 C 
ATOM     59  N   ASN     7       8.278 -20.639   2.913  1.00  0.00    -0.228 NA
ATOM     60  O   ARG     6       6.124 -19.923   2.772  1.00  0.00    -0.268 OA
BRANCH  59  61
ATOM     61  CA  ASN     7       7.989 -21.997   3.420  1.00  0.00     0.196 C 
BRANCH  61  62
ATOM     62  C   ASN     7       8.049 -22.052   4.959  1.00  0.00     0.275 C 
ATOM     63  N   PHE     8       7.072 -21.423   5.628  1.00  0.00    -0.228 NA
ATOM     64  O   ASN     7       8.710 -22.944   5.456  1.00  0.00    -0.268 OA
BRANCH  63  65
ATOM     65  CA  PHE     8       6.910 -21.435   7.103  1.00  0.00     0.191 C 
BRANCH  65  66
ATOM     66  CB  PHE     8       7.488 -20.128   7.661  1.00  0.00     0.060 C 
BRANCH  66  67
ATOM     67  CG  PHE     8       8.925 -20.247   8.202  1.00  0.00    -0.020 A 
ATOM     68  CD1 PHE     8       9.139 -20.495   9.551  1.00  0.00    -0.004 A 
ATOM     69  CE1 PHE     8      10.439 -20.502  10.057  1.00  0.00    -0.000 A 
ATOM     70  CZ  PHE     8      11.510 -20.276   9.208  1.00  0.00    -0.000 A 
ATOM     71  CE2 PHE     8      11.298 -20.041   7.853  1.00  0.00    -0.000 A 
ATOM     72  CD2 PHE     8       9.999 -20.035   7.346  1.00  0.00    -0.004 A 
ENDBRANCH  66  67
ENDBRANCH  65  66
BRANCH  65  73
ATOM     73  C   PHE     8       5.466 -21.679   7.599  1.00  0.00     0.275 C 
ATOM     74  N   TRP     9       4.501 -21.011   6.965  1.00  0.00    -0.228 NA
ATOM     75  O   PHE     8       5.252 -22.251   8.670  1.00  0.00    -0.268 OA
BRANCH  74  76
ATOM     76  CA  TRP     9       3.064 -21.242   7.254  1.00  0.00     0.191 C 
BRANCH  76  77
ATOM     77  CB  TRP     9       2.541 -20.086   8.123  1.00  0.00     0.062 C 
BRANCH  77  78
ATOM     78  CG  TRP     9       2.444 -20.444   9.605  1.00  0.00     0.001 A 
ATOM     79  CD1 TRP     9       3.179 -19.923  10.584  1.00  0.00     0.095 A 
ATOM     80  NE1 TRP     9       3.048 -20.656  11.682  1.00  0.00    -0.244 NA
ATOM     81  CE2 TRP     9       2.213 -21.657  11.449  1.00  0.00     0.081 A 
ATOM     82  CD2 TRP     9       1.811 -21.568  10.125  1.00  0.00     0.015 A 
ATOM     83  CZ2 TRP     9       1.804 -22.748  12.217  1.00  0.00     0.019 A 
ATOM     84  CE3 TRP     9       1.023 -22.556   9.554  1.00  0.00     0.001 A 
ATOM     85  CZ3 TRP     9       0.626 -23.651  10.314  1.00  0.00     0.000 A 
ATOM     86  CH2 TRP     9       1.005 -23.731  11.652  1.00  0.00     0.002 A 
ENDBRANCH  77  78
ENDBRANCH  76  77
BRANCH  76  87
ATOM     87  C   TRP     9       2.184 -21.456   6.001  1.00  0.00     0.275 C 
ATOM     88  O   TRP     9       2.382 -20.812   4.975  1.00  0.00    -0.268 OA
ATOM     89  N   GLY    10       1.284 -22.435   6.075  1.00  0.00    -0.226 NA
BRANCH  89  90
ATOM     90  CA  GLY    10       0.374 -22.824   4.962  1.00  0.00     0.218 C 
BRANCH  90  91
ATOM     91  C   GLY    10      -0.926 -22.014   4.829  1.00  0.00     0.277 C 
ATOM     92  N   CYS    11      -1.073 -21.034   5.719  1.00  0.00    -0.228 NA
ATOM     93  O   GLY    10      -1.813 -22.381   4.067  1.00  0.00    -0.268 OA
BRANCH  92  94
ATOM     94  CA  CYS    11      -2.208 -20.088   5.810  1.00  0.00     0.198 C 
BRANCH  94  95
ATOM     95  C   CYS    11      -1.637 -18.680   6.070  1.00  0.00     0.275 C 
ATOM     96  O   CYS    11      -0.460 -18.456   5.807  1.00  0.00    -0.268 OA
ATOM     97  N   GLY    12      -2.416 -17.854   6.753  1.00  0.00    -0.225 NA
BRANCH  97  98
ATOM     98  CA  GLY    12      -2.018 -16.481   7.101  1.00  0.00     0.226 C 
BRANCH  98  99
ATOM     99  C   GLY    12      -3.295 -15.695   7.478  1.00  0.00     0.211 C 
ATOM    100  O1  GLY    12      -3.135 -14.657   8.170  1.00  0.00    -0.646 OA
ATOM    101  O2  GLY    12      -4.384 -16.116   7.047  1.00  0.00    -0.646 OA
ENDBRANCH  98  99
ENDBRANCH  97  98
ENDBRANCH  94  95
BRANCH  94 102
ATOM    102  CB  CYS    11      -3.069 -20.415   7.027  1.00  0.00     0.103 C 
ATOM    103  SG  CYS    11      -2.171 -20.976   8.525  1.00  0.00    -0.080 SA
ENDBRANCH  94 102
ENDBRANCH  92  94
ENDBRANCH  90  91
ENDBRANCH  89  90
ENDBRANCH  76  87
ENDBRANCH  74  76
ENDBRANCH  65  73
ENDBRANCH  63  65
ENDBRANCH  61  62
BRANCH  61 104
ATOM    104  CB  ASN     7       8.932 -23.035   2.799  1.00  0.00     0.126 C 
BRANCH 104 105
ATOM    105  CG  ASN     7      10.199 -22.450   2.147  1.00  0.00     0.276 C 
ATOM    106  ND2 ASN     7      11.197 -22.187   2.960  1.00  0.00    -0.107 N 
ATOM    107  OD1 ASN     7      10.282 -22.077   0.984  1.00  0.00    -0.269 OA
ENDBRANCH 104 105
ENDBRANCH  61 104
ENDBRANCH  59  61
ENDBRANCH   1  58
TORSDOF 42
ENDMDL
MODEL 3
REMARK VINA RESULT:      -6.3      2.526      5.052
REMARK WARNING: 32 MAX_TORS EXCEEDED!!!
REMARK  42 active torsions:
REMARK  status: ('A' for Active; 'I' for Inactive)
REMARK    1  A    between atoms: CA_2  and  CB_3 
REMARK    2  A    between atoms: CA_2  and  C_11 
REMARK    3  A    between atoms: CB_3  and  CG_4 
REMARK       I    between atoms: C_11  and  N_13 
REMARK    4  A    between atoms: N_13  and  CA_14 
REMARK    5  A    between atoms: CA_14  and  CB_15 
REMARK    6  A    between atoms: CA_14  and  C_19 
REMARK    7  A    between atoms: CB_15  and  CG_16 
REMARK       I    between atoms: C_19  and  N_21 
REMARK    8  A    between atoms: CA_22  and  C_26 
REMARK       I    between atoms: C_26  and  N_28 
REMARK    9  A    between atoms: N_28  and  CA_29 
REMARK   10  A    between atoms: CA_29  and  C_35 
REMARK   11  A    between atoms: CA_29  and  CB_30 
REMARK   12  A    between atoms: CB_30  and  CG_31 
REMARK   13  A    between atoms: CG_31  and  CD_32 
REMARK       I    between atoms: C_35  and  N_37 
REMARK   14  A    between atoms: N_37  and  CA_38 
REMARK   15  A    between atoms: CA_38  and  CB_39 
REMARK   16  A    between atoms: CA_38  and  C_47 
REMARK   17  A    between atoms: CB_39  and  CG_40 
REMARK       I    between atoms: C_47  and  N_49 
REMARK   18  A    between atoms: N_49  and  CA_50 
REMARK   19  A    between atoms: CA_50  and  CB_51 
REMARK   20  A    between atoms: CA_50  and  C_58 
REMARK   21  A    between atoms: CB_51  and  CG_52 
REMARK   22  A    between atoms: CG_52  and  CD_53 
REMARK   23  A    between atoms: CD_53  and  NE_54 
REMARK       I    between atoms: C_58  and  N_60 
REMARK   24  A    between atoms: N_60  and  CA_61 
REMARK   25  A    between atoms: CA_61  and  C_66 
REMARK   26  A    between atoms: CA_61  and  CB_62 
REMARK   27  A    between atoms: CB_62  and  CG_63 
REMARK       I    between atoms: C_66  and  N_68 
REMARK   28  A    between atoms: N_68  and  CA_69 
REMARK   29  A    between atoms: CA_69  and  CB_70 
REMARK   30  A    between atoms: CA_69  and  C_77 
REMARK   31  A    between atoms: CB_70  and  CG_71 
REMARK       I    between atoms: C_77  and  N_79 
REMARK   32  A    between atoms: N_79  and  CA_80 
REMARK   33  A    between atoms: CA_80  and  CB_81 
REMARK   34  A    between atoms: CA_80  and  C_91 
REMARK   35  A    between atoms: CB_81  and  CG_82 
REMARK       I    between atoms: C_91  and  N_93 
REMARK   36  A    between atoms: N_93  and  CA_94 
REMARK   37  A    between atoms: CA_94  and  C_95 
REMARK       I    between atoms: C_95  and  N_97 
REMARK   38  A    between atoms: N_97  and  CA_98 
REMARK   39  A    between atoms: CA_98  and  C_101 
REMARK   40  A    between atoms: CA_98  and  CB_99 
REMARK       I    between atoms: C_101  and  N_103 
REMARK   41  A    between atoms: N_103  and  CA_104 
REMARK   42  A    between atoms: CA_104  and  C_105 
ROOT
ATOM      1  CA  ARG     6       8.177 -19.035   5.486  1.00  0.00     0.186 C 
ENDROOT
BRANCH   1   2
ATOM      2  N   ARG     6       9.241 -18.340   6.248  1.00  0.00    -0.229 NA
ATOM      3  C   TYR     5       9.122 -17.067   6.648  1.00  0.00     0.275 C 
ATOM      4  O   TYR     5       8.109 -16.401   6.433  1.00  0.00    -0.268 OA
BRANCH   3   5
ATOM      5  CA  TYR     5      10.268 -16.489   7.495  1.00  0.00     0.191 C 
BRANCH   5   6
ATOM      6  N   TYR     5      11.040 -15.426   6.802  1.00  0.00    -0.228 NA
ATOM      7  C   GLU     4      12.205 -14.945   7.265  1.00  0.00     0.274 C 
ATOM      8  O   GLU     4      12.793 -15.441   8.218  1.00  0.00    -0.268 OA
BRANCH   7   9
ATOM      9  CA  GLU     4      12.938 -13.946   6.346  1.00  0.00     0.187 C 
BRANCH   9  10
ATOM     10  CB  GLU     4      13.910 -14.701   5.425  1.00  0.00     0.045 C 
BRANCH  10  11
ATOM     11  CG  GLU     4      15.347 -14.892   5.956  1.00  0.00     0.100 C 
BRANCH  11  12
ATOM     12  CD  GLU     4      15.812 -16.347   6.004  1.00  0.00     0.185 C 
ATOM     13  OE1 GLU     4      15.025 -17.189   6.509  1.00  0.00    -0.647 OA
ATOM     14  OE2 GLU     4      17.044 -16.542   5.997  1.00  0.00    -0.647 OA
ENDBRANCH  11  12
ENDBRANCH  10  11
ENDBRANCH   9  10
BRANCH   9  15
ATOM     15  N   GLU     4      13.695 -12.919   7.088  1.00  0.00    -0.229 NA
ATOM     16  C   PRO     3      14.188 -11.774   6.632  1.00  0.00     0.272 C 
ATOM     17  O   PRO     3      13.774 -11.217   5.614  1.00  0.00    -0.269 OA
BRANCH  16  18
ATOM     18  CA  PRO     3      14.931 -10.925   7.665  1.00  0.00     0.165 C 
ATOM     19  N   PRO     3      14.067 -10.278   8.675  1.00  0.00    -0.312 N 
ATOM     20  CD  PRO     3      14.719 -10.348  10.008  1.00  0.00     0.105 C 
ATOM     21  C   ASP     2      12.944  -9.599   8.379  1.00  0.00     0.257 C 
ATOM     22  CG  PRO     3      16.130 -10.880   9.713  1.00  0.00     0.027 C 
ATOM     23  CB  PRO     3      15.940 -11.743   8.469  1.00  0.00     0.034 C 
ATOM     24  O   ASP     2      12.686  -9.297   7.204  1.00  0.00    -0.270 OA
BRANCH  21  25
ATOM     25  CA  ASP     2      12.164  -8.889   9.509  1.00  0.00     0.195 C 
BRANCH  25  26
ATOM     26  CB  ASP     2      11.453  -9.806  10.537  1.00  0.00     0.132 C 
BRANCH  26  27
ATOM     27  CG  ASP     2      11.382  -9.118  11.913  1.00  0.00     0.188 C 
ATOM     28  OD2 ASP     2      10.234  -8.759  12.280  1.00  0.00    -0.647 OA
ATOM     29  OD1 ASP     2      12.397  -8.471  12.273  1.00  0.00    -0.647 OA
ENDBRANCH  26  27
ENDBRANCH  25  26
BRANCH  25  30
ATOM     30  N   ASP     2      11.054  -8.074   8.988  1.00  0.00    -0.228 NA
ATOM     31  C   TYR     1      10.963  -6.764   9.011  1.00  0.00     0.289 C 
ATOM     32  O   TYR     1      11.829  -5.948   9.340  1.00  0.00    -0.268 OA
BRANCH  31  33
ATOM     33  CA  TYR     1       9.582  -6.280   8.583  1.00  0.00     0.385 C 
ATOM     34  N   TYR     1       8.581  -7.019   9.370  1.00  0.00     0.626 N 
BRANCH  33  35
ATOM     35  CB  TYR     1       9.529  -4.775   8.835  1.00  0.00     0.075 C 
BRANCH  35  36
ATOM     36  CG  TYR     1       9.449  -3.951   7.540  1.00  0.00    -0.019 A 
ATOM     37  CD2 TYR     1       8.232  -3.541   7.018  1.00  0.00    -0.002 A 
ATOM     38  CE2 TYR     1       8.194  -2.686   5.927  1.00  0.00     0.027 A 
ATOM     39  CZ  TYR     1       9.391  -2.253   5.360  1.00  0.00     0.131 A 
ATOM     40  CE1 TYR     1      10.602  -2.699   5.861  1.00  0.00     0.027 A 
ATOM     41  OH  TYR     1       9.387  -1.281   4.426  1.00  0.00    -0.190 OA
ATOM     42  CD1 TYR     1      10.640  -3.553   6.952  1.00  0.00    -0.002 A 
ENDBRANCH  35  36
ENDBRANCH  33  35
ENDBRANCH  31  33
ENDBRANCH  25  30
ENDBRANCH  21  25
ENDBRANCH  16  18
ENDBRANCH   9  15
ENDBRANCH   7   9
ENDBRANCH   5   6
BRANCH   5  43
ATOM     43  CB  TYR     5       9.744 -15.967   8.844  1.00  0.00     0.060 C 
BRANCH  43  44
ATOM     44  CG  TYR     5       9.232 -17.100   9.749  1.00  0.00    -0.020 A 
ATOM     45  CD2 TYR     5      10.119 -17.997  10.330  1.00  0.00    -0.002 A 
ATOM     46  CE2 TYR     5       9.647 -19.014  11.153  1.00  0.00     0.027 A 
ATOM     47  CZ  TYR     5       8.287 -19.135  11.396  1.00  0.00     0.131 A 
ATOM     48  CE1 TYR     5       7.394 -18.230  10.833  1.00  0.00     0.027 A 
ATOM     49  OH  TYR     5       7.810 -20.198  12.078  1.00  0.00    -0.190 OA
ATOM     50  CD1 TYR     5       7.869 -17.217  10.000  1.00  0.00    -0.002 A 
ENDBRANCH  43  44
ENDBRANCH   5  43
ENDBRANCH   3   5
ENDBRANCH   1   2
BRANCH   1  51
ATOM     51  CB  ARG     6       8.690 -19.675   4.200  1.00  0.00     0.036 C 
BRANCH  51  52
ATOM     52  CG  ARG     6       9.999 -19.067   3.690  1.00  0.00     0.029 C 
BRANCH  52  53
ATOM     53  CD  ARG     6       9.742 -18.220   2.447  1.00  0.00     0.145 C 
BRANCH  53  54
ATOM     54  NE  ARG     6       8.301 -18.130   2.158  1.00  0.00    -0.083 NA
ATOM     55  CZ  ARG     6       7.757 -18.001   0.933  1.00  0.00     0.782 C 
ATOM     56  NH2 ARG     6       6.439 -17.843   0.791  1.00  0.00     0.063 N 
ATOM     57  NH1 ARG     6       8.533 -17.942  -0.143  1.00  0.00     0.063 N 
ENDBRANCH  53  54
ENDBRANCH  52  53
ENDBRANCH  51  52
ENDBRANCH   1  51
BRANCH   1  58
ATOM     58  C   ARG     6       7.510 -20.153   6.297  1.00  0.00     0.274 C 
ATOM     59  N   ASN     7       6.310 -19.867   6.795  1.00  0.00    -0.228 NA
ATOM     60  O   ARG     6       8.101 -21.224   6.446  1.00  0.00    -0.268 OA
BRANCH  59  61
ATOM     61  CA  ASN     7       5.473 -20.848   7.517  1.00  0.00     0.196 C 
BRANCH  61  62
ATOM     62  C   ASN     7       4.343 -21.396   6.624  1.00  0.00     0.275 C 
ATOM     63  N   PHE     8       3.116 -21.452   7.163  1.00  0.00    -0.228 NA
ATOM     64  O   ASN     7       4.526 -21.374   5.423  1.00  0.00    -0.268 OA
BRANCH  63  65
ATOM     65  CA  PHE     8       1.889 -21.867   6.439  1.00  0.00     0.191 C 
BRANCH  65  66
ATOM     66  CB  PHE     8       1.130 -22.872   7.317  1.00  0.00     0.060 C 
BRANCH  66  67
ATOM     67  CG  PHE     8       1.288 -22.641   8.831  1.00  0.00    -0.020 A 
ATOM     68  CD1 PHE     8       2.033 -23.532   9.593  1.00  0.00    -0.004 A 
ATOM     69  CE1 PHE     8       2.092 -23.380  10.978  1.00  0.00    -0.000 A 
ATOM     70  CZ  PHE     8       1.419 -22.332  11.584  1.00  0.00    -0.000 A 
ATOM     71  CE2 PHE     8       0.683 -21.431  10.822  1.00  0.00    -0.000 A 
ATOM     72  CD2 PHE     8       0.624 -21.582   9.436  1.00  0.00    -0.004 A 
ENDBRANCH  66  67
ENDBRANCH  65  66
BRANCH  65  73
ATOM     73  C   PHE     8       0.978 -20.706   5.981  1.00  0.00     0.275 C 
ATOM     74  N   TRP     9      -0.299 -21.011   5.744  1.00  0.00    -0.228 NA
ATOM     75  O   PHE     8       1.458 -19.631   5.614  1.00  0.00    -0.268 OA
BRANCH  74  76
ATOM     76  CA  TRP     9      -1.309 -19.975   5.418  1.00  0.00     0.191 C 
BRANCH  76  77
ATOM     77  CB  TRP     9      -2.701 -20.627   5.402  1.00  0.00     0.062 C 
BRANCH  77  78
ATOM     78  CG  TRP     9      -3.205 -20.937   3.993  1.00  0.00     0.001 A 
ATOM     79  CD1 TRP     9      -4.228 -20.348   3.382  1.00  0.00     0.095 A 
ATOM     80  NE1 TRP     9      -4.573 -21.048   2.309  1.00  0.00    -0.244 NA
ATOM     81  CE2 TRP     9      -3.772 -22.096   2.187  1.00  0.00     0.081 A 
ATOM     82  CD2 TRP     9      -2.887 -22.072   3.253  1.00  0.00     0.015 A 
ATOM     83  CZ2 TRP     9      -3.755 -23.177   1.306  1.00  0.00     0.019 A 
ATOM     84  CE3 TRP     9      -1.998 -23.116   3.462  1.00  0.00     0.001 A 
ATOM     85  CZ3 TRP     9      -1.989 -24.202   2.593  1.00  0.00     0.000 A 
ATOM     86  CH2 TRP     9      -2.859 -24.217   1.504  1.00  0.00     0.002 A 
ENDBRANCH  77  78
ENDBRANCH  76  77
BRANCH  76  87
ATOM     87  C   TRP     9      -1.273 -18.733   6.337  1.00  0.00     0.275 C 
ATOM     88  O   TRP     9      -0.963 -17.631   5.894  1.00  0.00    -0.268 OA
ATOM     89  N   GLY    10      -1.689 -18.914   7.589  1.00  0.00    -0.226 NA
BRANCH  89  90
ATOM     90  CA  GLY    10      -1.769 -17.835   8.611  1.00  0.00     0.218 C 
BRANCH  90  91
ATOM     91  C   GLY    10      -3.180 -17.353   8.985  1.00  0.00     0.277 C 
ATOM     92  N   CYS    11      -3.473 -16.113   8.595  1.00  0.00    -0.228 NA
ATOM     93  O   GLY    10      -3.888 -18.016   9.735  1.00  0.00    -0.268 OA
BRANCH  92  94
ATOM     94  CA  CYS    11      -4.757 -15.405   8.799  1.00  0.00     0.198 C 
BRANCH  94  95
ATOM     95  C   CYS    11      -5.184 -14.792   7.451  1.00  0.00     0.275 C 
ATOM     96  O   CYS    11      -4.722 -13.706   7.117  1.00  0.00    -0.268 OA
ATOM     97  N   GLY    12      -6.185 -15.396   6.827  1.00  0.00    -0.225 NA
BRANCH  97  98
ATOM     98  CA  GLY    12      -6.726 -14.931   5.540  1.00  0.00     0.226 C 
BRANCH  98  99
ATOM     99  C   GLY    12      -7.585 -16.070   4.944  1.00  0.00     0.211 C 
ATOM    100  O1  GLY    12      -7.782 -16.038   3.703  1.00  0.00    -0.646 OA
ATOM    101  O2  GLY    12      -7.991 -16.957   5.718  1.00  0.00    -0.646 OA
ENDBRANCH  98  99
ENDBRANCH  97  98
ENDBRANCH  94  95
BRANCH  94 102
ATOM    102  CB  CYS    11      -4.562 -14.223   9.745  1.00  0.00     0.103 C 
ATOM    103  SG  CYS    11      -4.520 -14.620  11.536  1.00  0.00    -0.080 SA
ENDBRANCH  94 102
ENDBRANCH  92  94
ENDBRANCH  90  91
ENDBRANCH  89  90
ENDBRANCH  76  87
ENDBRANCH  74  76
ENDBRANCH  65  73
ENDBRANCH  63  65
ENDBRANCH  61  62
BRANCH  61 104
ATOM    104  CB  ASN     7       4.904 -20.249   8.810  1.00  0.00     0.126 C 
BRANCH 104 105
ATOM    105  CG  ASN     7       5.076 -21.130  10.061  1.00  0.00     0.276 C 
ATOM    106  ND2 ASN     7       5.698 -22.272   9.881  1.00  0.00    -0.107 N 
ATOM    107  OD1 ASN     7       4.551 -20.918  11.147  1.00  0.00    -0.269 OA
ENDBRANCH 104 105
ENDBRANCH  61 104
ENDBRANCH  59  61
ENDBRANCH   1  58
TORSDOF 42
ENDMDL
MODEL 4
REMARK VINA RESULT:      -6.3      3.789      8.337
REMARK WARNING: 32 MAX_TORS EXCEEDED!!!
REMARK  42 active torsions:
REMARK  status: ('A' for Active; 'I' for Inactive)
REMARK    1  A    between atoms: CA_2  and  CB_3 
REMARK    2  A    between atoms: CA_2  and  C_11 
REMARK    3  A    between atoms: CB_3  and  CG_4 
REMARK       I    between atoms: C_11  and  N_13 
REMARK    4  A    between atoms: N_13  and  CA_14 
REMARK    5  A    between atoms: CA_14  and  CB_15 
REMARK    6  A    between atoms: CA_14  and  C_19 
REMARK    7  A    between atoms: CB_15  and  CG_16 
REMARK       I    between atoms: C_19  and  N_21 
REMARK    8  A    between atoms: CA_22  and  C_26 
REMARK       I    between atoms: C_26  and  N_28 
REMARK    9  A    between atoms: N_28  and  CA_29 
REMARK   10  A    between atoms: CA_29  and  C_35 
REMARK   11  A    between atoms: CA_29  and  CB_30 
REMARK   12  A    between atoms: CB_30  and  CG_31 
REMARK   13  A    between atoms: CG_31  and  CD_32 
REMARK       I    between atoms: C_35  and  N_37 
REMARK   14  A    between atoms: N_37  and  CA_38 
REMARK   15  A    between atoms: CA_38  and  CB_39 
REMARK   16  A    between atoms: CA_38  and  C_47 
REMARK   17  A    between atoms: CB_39  and  CG_40 
REMARK       I    between atoms: C_47  and  N_49 
REMARK   18  A    between atoms: N_49  and  CA_50 
REMARK   19  A    between atoms: CA_50  and  CB_51 
REMARK   20  A    between atoms: CA_50  and  C_58 
REMARK   21  A    between atoms: CB_51  and  CG_52 
REMARK   22  A    between atoms: CG_52  and  CD_53 
REMARK   23  A    between atoms: CD_53  and  NE_54 
REMARK       I    between atoms: C_58  and  N_60 
REMARK   24  A    between atoms: N_60  and  CA_61 
REMARK   25  A    between atoms: CA_61  and  C_66 
REMARK   26  A    between atoms: CA_61  and  CB_62 
REMARK   27  A    between atoms: CB_62  and  CG_63 
REMARK       I    between atoms: C_66  and  N_68 
REMARK   28  A    between atoms: N_68  and  CA_69 
REMARK   29  A    between atoms: CA_69  and  CB_70 
REMARK   30  A    between atoms: CA_69  and  C_77 
REMARK   31  A    between atoms: CB_70  and  CG_71 
REMARK       I    between atoms: C_77  and  N_79 
REMARK   32  A    between atoms: N_79  and  CA_80 
REMARK   33  A    between atoms: CA_80  and  CB_81 
REMARK   34  A    between atoms: CA_80  and  C_91 
REMARK   35  A    between atoms: CB_81  and  CG_82 
REMARK       I    between atoms: C_91  and  N_93 
REMARK   36  A    between atoms: N_93  and  CA_94 
REMARK   37  A    between atoms: CA_94  and  C_95 
REMARK       I    between atoms: C_95  and  N_97 
REMARK   38  A    between atoms: N_97  and  CA_98 
REMARK   39  A    between atoms: CA_98  and  C_101 
REMARK   40  A    between atoms: CA_98  and  CB_99 
REMARK       I    between atoms: C_101  and  N_103 
REMARK   41  A    between atoms: N_103  and  CA_104 
REMARK   42  A    between atoms: CA_104  and  C_105 
ROOT
ATOM      1  CA  ARG     6       8.178 -18.500   2.294  1.00  0.00     0.186 C 
ENDROOT
BRANCH   1   2
ATOM      2  N   ARG     6       9.528 -18.303   2.871  1.00  0.00    -0.229 NA
ATOM      3  C   TYR     5       9.741 -17.552   3.959  1.00  0.00     0.275 C 
ATOM      4  O   TYR     5       8.825 -16.999   4.568  1.00  0.00    -0.268 OA
BRANCH   3   5
ATOM      5  CA  TYR     5      11.180 -17.492   4.498  1.00  0.00     0.191 C 
BRANCH   5   6
ATOM      6  N   TYR     5      11.417 -16.359   5.430  1.00  0.00    -0.228 NA
ATOM      7  C   GLU     4      12.386 -15.448   5.245  1.00  0.00     0.274 C 
ATOM      8  O   GLU     4      13.059 -15.396   4.223  1.00  0.00    -0.268 OA
BRANCH   7   9
ATOM      9  CA  GLU     4      12.398 -14.263   6.233  1.00  0.00     0.187 C 
BRANCH   9  10
ATOM     10  CB  GLU     4      12.812 -12.977   5.500  1.00  0.00     0.045 C 
BRANCH  10  11
ATOM     11  CG  GLU     4      13.789 -12.046   6.252  1.00  0.00     0.100 C 
BRANCH  11  12
ATOM     12  CD  GLU     4      13.434 -10.562   6.169  1.00  0.00     0.185 C 
ATOM     13  OE1 GLU     4      12.527 -10.141   6.933  1.00  0.00    -0.647 OA
ATOM     14  OE2 GLU     4      13.688  -9.984   5.092  1.00  0.00    -0.647 OA
ENDBRANCH  11  12
ENDBRANCH  10  11
ENDBRANCH   9  10
BRANCH   9  15
ATOM     15  N   GLU     4      13.308 -14.467   7.377  1.00  0.00    -0.229 NA
ATOM     16  C   PRO     3      13.016 -14.943   8.581  1.00  0.00     0.272 C 
ATOM     17  O   PRO     3      12.022 -15.632   8.814  1.00  0.00    -0.269 OA
BRANCH  16  18
ATOM     18  CA  PRO     3      14.196 -15.029   9.552  1.00  0.00     0.165 C 
ATOM     19  N   PRO     3      15.357 -15.796   9.053  1.00  0.00    -0.312 N 
ATOM     20  CD  PRO     3      16.615 -15.109   9.443  1.00  0.00     0.105 C 
ATOM     21  C   ASP     2      15.265 -17.008   8.476  1.00  0.00     0.257 C 
ATOM     22  CG  PRO     3      16.158 -13.995  10.397  1.00  0.00     0.027 C 
ATOM     23  CB  PRO     3      14.752 -13.653   9.911  1.00  0.00     0.034 C 
ATOM     24  O   ASP     2      14.203 -17.647   8.526  1.00  0.00    -0.270 OA
BRANCH  21  25
ATOM     25  CA  ASP     2      16.555 -17.757   8.069  1.00  0.00     0.195 C 
BRANCH  25  26
ATOM     26  CB  ASP     2      17.121 -17.439   6.661  1.00  0.00     0.132 C 
BRANCH  26  27
ATOM     27  CG  ASP     2      18.433 -16.641   6.777  1.00  0.00     0.188 C 
ATOM     28  OD2 ASP     2      19.170 -16.948   7.748  1.00  0.00    -0.647 OA
ATOM     29  OD1 ASP     2      18.418 -15.464   6.336  1.00  0.00    -0.647 OA
ENDBRANCH  26  27
ENDBRANCH  25  26
BRANCH  25  30
ATOM     30  N   ASP     2      16.353 -19.214   8.009  1.00  0.00    -0.228 NA
ATOM     31  C   TYR     1      17.252 -20.141   8.246  1.00  0.00     0.289 C 
ATOM     32  O   TYR     1      18.395 -19.996   8.693  1.00  0.00    -0.268 OA
BRANCH  31  33
ATOM     33  CA  TYR     1      16.748 -21.533   7.877  1.00  0.00     0.385 C 
ATOM     34  N   TYR     1      17.329 -22.491   8.833  1.00  0.00     0.626 N 
BRANCH  33  35
ATOM     35  CB  TYR     1      15.223 -21.497   7.939  1.00  0.00     0.075 C 
BRANCH  35  36
ATOM     36  CG  TYR     1      14.557 -22.337   6.839  1.00  0.00    -0.019 A 
ATOM     37  CD2 TYR     1      15.304 -23.135   5.987  1.00  0.00    -0.002 A 
ATOM     38  CE2 TYR     1      14.671 -23.986   5.093  1.00  0.00     0.027 A 
ATOM     39  CZ  TYR     1      13.277 -24.021   5.059  1.00  0.00     0.131 A 
ATOM     40  CE1 TYR     1      12.538 -23.191   5.884  1.00  0.00     0.027 A 
ATOM     41  OH  TYR     1      12.640 -24.966   4.340  1.00  0.00    -0.190 OA
ATOM     42  CD1 TYR     1      13.172 -22.341   6.777  1.00  0.00    -0.002 A 
ENDBRANCH  35  36
ENDBRANCH  33  35
ENDBRANCH  31  33
ENDBRANCH  25  30
ENDBRANCH  21  25
ENDBRANCH  16  18
ENDBRANCH   9  15
ENDBRANCH   7   9
ENDBRANCH   5   6
BRANCH   5  43
ATOM     43  CB  TYR     5      11.571 -18.819   5.170  1.00  0.00     0.060 C 
BRANCH  43  44
ATOM     44  CG  TYR     5      12.854 -19.420   4.573  1.00  0.00    -0.020 A 
ATOM     45  CD2 TYR     5      14.101 -19.058   5.067  1.00  0.00    -0.002 A 
ATOM     46  CE2 TYR     5      15.256 -19.613   4.525  1.00  0.00     0.027 A 
ATOM     47  CZ  TYR     5      15.165 -20.530   3.490  1.00  0.00     0.131 A 
ATOM     48  CE1 TYR     5      13.920 -20.912   3.002  1.00  0.00     0.027 A 
ATOM     49  OH  TYR     5      16.281 -20.966   2.867  1.00  0.00    -0.190 OA
ATOM     50  CD1 TYR     5      12.764 -20.347   3.541  1.00  0.00    -0.002 A 
ENDBRANCH  43  44
ENDBRANCH   5  43
ENDBRANCH   3   5
ENDBRANCH   1   2
BRANCH   1  51
ATOM     51  CB  ARG     6       8.156 -18.361   0.775  1.00  0.00     0.036 C 
BRANCH  51  52
ATOM     52  CG  ARG     6       7.049 -17.439   0.258  1.00  0.00     0.029 C 
BRANCH  52  53
ATOM     53  CD  ARG     6       7.641 -16.123  -0.238  1.00  0.00     0.145 C 
BRANCH  53  54
ATOM     54  NE  ARG     6       7.981 -15.240   0.890  1.00  0.00    -0.083 NA
ATOM     55  CZ  ARG     6       9.226 -14.994   1.342  1.00  0.00     0.782 C 
ATOM     56  NH2 ARG     6       9.416 -14.240   2.427  1.00  0.00     0.063 N 
ATOM     57  NH1 ARG     6      10.275 -15.569   0.765  1.00  0.00     0.063 N 
ENDBRANCH  53  54
ENDBRANCH  52  53
ENDBRANCH  51  52
ENDBRANCH   1  51
BRANCH   1  58
ATOM     58  C   ARG     6       7.597 -19.882   2.617  1.00  0.00     0.274 C 
ATOM     59  N   ASN     7       8.461 -20.893   2.587  1.00  0.00    -0.228 NA
ATOM     60  O   ARG     6       6.397 -19.985   2.875  1.00  0.00    -0.268 OA
BRANCH  59  61
ATOM     61  CA  ASN     7       8.109 -22.277   2.964  1.00  0.00     0.196 C 
BRANCH  61  62
ATOM     62  C   ASN     7       8.508 -22.587   4.420  1.00  0.00     0.275 C 
ATOM     63  N   PHE     8       8.186 -21.672   5.346  1.00  0.00    -0.228 NA
ATOM     64  O   ASN     7       8.721 -23.751   4.700  1.00  0.00    -0.268 OA
BRANCH  63  65
ATOM     65  CA  PHE     8       8.408 -21.827   6.804  1.00  0.00     0.191 C 
BRANCH  65  66
ATOM     66  CB  PHE     8       9.166 -20.591   7.309  1.00  0.00     0.060 C 
BRANCH  66  67
ATOM     67  CG  PHE     8      10.188 -20.883   8.424  1.00  0.00    -0.020 A 
ATOM     68  CD1 PHE     8      11.178 -19.955   8.715  1.00  0.00    -0.004 A 
ATOM     69  CE1 PHE     8      12.164 -20.263   9.653  1.00  0.00    -0.000 A 
ATOM     70  CZ  PHE     8      12.140 -21.488  10.299  1.00  0.00    -0.000 A 
ATOM     71  CE2 PHE     8      11.141 -22.414  10.018  1.00  0.00    -0.000 A 
ATOM     72  CD2 PHE     8      10.155 -22.106   9.080  1.00  0.00    -0.004 A 
ENDBRANCH  66  67
ENDBRANCH  65  66
BRANCH  65  73
ATOM     73  C   PHE     8       7.131 -22.092   7.634  1.00  0.00     0.275 C 
ATOM     74  N   TRP     9       6.449 -21.018   8.034  1.00  0.00    -0.228 NA
ATOM     75  O   PHE     8       6.905 -23.208   8.109  1.00  0.00    -0.268 OA
BRANCH  74  76
ATOM     76  CA  TRP     9       5.143 -21.128   8.729  1.00  0.00     0.191 C 
BRANCH  76  77
ATOM     77  CB  TRP     9       5.264 -20.479  10.118  1.00  0.00     0.062 C 
BRANCH  77  78
ATOM     78  CG  TRP     9       6.709 -20.196  10.526  1.00  0.00     0.001 A 
ATOM     79  CD1 TRP     9       7.409 -20.867  11.437  1.00  0.00     0.095 A 
ATOM     80  NE1 TRP     9       8.503 -20.185  11.752  1.00  0.00    -0.244 NA
ATOM     81  CE2 TRP     9       8.551 -19.069  11.040  1.00  0.00     0.081 A 
ATOM     82  CD2 TRP     9       7.413 -19.028  10.250  1.00  0.00     0.015 A 
ATOM     83  CZ2 TRP     9       9.420 -17.979  11.046  1.00  0.00     0.019 A 
ATOM     84  CE3 TRP     9       7.123 -17.912   9.479  1.00  0.00     0.001 A 
ATOM     85  CZ3 TRP     9       7.982 -16.818   9.494  1.00  0.00     0.000 A 
ATOM     86  CH2 TRP     9       9.141 -16.866  10.266  1.00  0.00     0.002 A 
ENDBRANCH  77  78
ENDBRANCH  76  77
BRANCH  76  87
ATOM     87  C   TRP     9       3.944 -20.558   7.937  1.00  0.00     0.275 C 
ATOM     88  O   TRP     9       3.973 -19.417   7.485  1.00  0.00    -0.268 OA
ATOM     89  N   GLY    10       2.944 -21.404   7.695  1.00  0.00    -0.226 NA
BRANCH  89  90
ATOM     90  CA  GLY    10       1.725 -21.059   6.913  1.00  0.00     0.218 C 
BRANCH  90  91
ATOM     91  C   GLY    10       0.613 -20.319   7.675  1.00  0.00     0.277 C 
ATOM     92  N   CYS    11       0.046 -19.315   7.009  1.00  0.00    -0.228 NA
ATOM     93  O   GLY    10       0.412 -20.548   8.862  1.00  0.00    -0.268 OA
BRANCH  92  94
ATOM     94  CA  CYS    11      -1.058 -18.451   7.486  1.00  0.00     0.198 C 
BRANCH  94  95
ATOM     95  C   CYS    11      -2.390 -19.099   7.061  1.00  0.00     0.275 C 
ATOM     96  O   CYS    11      -3.120 -19.580   7.920  1.00  0.00    -0.268 OA
ATOM     97  N   GLY    12      -2.566 -19.267   5.758  1.00  0.00    -0.225 NA
BRANCH  97  98
ATOM     98  CA  GLY    12      -3.773 -19.883   5.185  1.00  0.00     0.226 C 
BRANCH  98  99
ATOM     99  C   GLY    12      -3.483 -20.210   3.702  1.00  0.00     0.211 C 
ATOM    100  O1  GLY    12      -2.674 -21.146   3.478  1.00  0.00    -0.646 OA
ATOM    101  O2  GLY    12      -4.091 -19.556   2.834  1.00  0.00    -0.646 OA
ENDBRANCH  98  99
ENDBRANCH  97  98
ENDBRANCH  94  95
BRANCH  94 102
ATOM    102  CB  CYS    11      -1.012 -17.099   6.777  1.00  0.00     0.103 C 
ATOM    103  SG  CYS    11      -2.332 -15.907   7.225  1.00  0.00    -0.080 SA
ENDBRANCH  94 102
ENDBRANCH  92  94
ENDBRANCH  90  91
ENDBRANCH  89  90
ENDBRANCH  76  87
ENDBRANCH  74  76
ENDBRANCH  65  73
ENDBRANCH  63  65
ENDBRANCH  61  62
BRANCH  61 104
ATOM    104  CB  ASN     7       8.734 -23.293   1.999  1.00  0.00     0.126 C 
BRANCH 104 105
ATOM    105  CG  ASN     7      10.046 -22.834   1.336  1.00  0.00     0.276 C 
ATOM    106  ND2 ASN     7      11.147 -23.081   2.007  1.00  0.00    -0.107 N 
ATOM    107  OD1 ASN     7      10.119 -22.135   0.333  1.00  0.00    -0.269 OA
ENDBRANCH 104 105
ENDBRANCH  61 104
ENDBRANCH  59  61
ENDBRANCH   1  58
TORSDOF 42
ENDMDL
MODEL 5
REMARK VINA RESULT:      -6.2     12.140     20.024
REMARK WARNING: 32 MAX_TORS EXCEEDED!!!
REMARK  42 active torsions:
REMARK  status: ('A' for Active; 'I' for Inactive)
REMARK    1  A    between atoms: CA_2  and  CB_3 
REMARK    2  A    between atoms: CA_2  and  C_11 
REMARK    3  A    between atoms: CB_3  and  CG_4 
REMARK       I    between atoms: C_11  and  N_13 
REMARK    4  A    between atoms: N_13  and  CA_14 
REMARK    5  A    between atoms: CA_14  and  CB_15 
REMARK    6  A    between atoms: CA_14  and  C_19 
REMARK    7  A    between atoms: CB_15  and  CG_16 
REMARK       I    between atoms: C_19  and  N_21 
REMARK    8  A    between atoms: CA_22  and  C_26 
REMARK       I    between atoms: C_26  and  N_28 
REMARK    9  A    between atoms: N_28  and  CA_29 
REMARK   10  A    between atoms: CA_29  and  C_35 
REMARK   11  A    between atoms: CA_29  and  CB_30 
REMARK   12  A    between atoms: CB_30  and  CG_31 
REMARK   13  A    between atoms: CG_31  and  CD_32 
REMARK       I    between atoms: C_35  and  N_37 
REMARK   14  A    between atoms: N_37  and  CA_38 
REMARK   15  A    between atoms: CA_38  and  CB_39 
REMARK   16  A    between atoms: CA_38  and  C_47 
REMARK   17  A    between atoms: CB_39  and  CG_40 
REMARK       I    between atoms: C_47  and  N_49 
REMARK   18  A    between atoms: N_49  and  CA_50 
REMARK   19  A    between atoms: CA_50  and  CB_51 
REMARK   20  A    between atoms: CA_50  and  C_58 
REMARK   21  A    between atoms: CB_51  and  CG_52 
REMARK   22  A    between atoms: CG_52  and  CD_53 
REMARK   23  A    between atoms: CD_53  and  NE_54 
REMARK       I    between atoms: C_58  and  N_60 
REMARK   24  A    between atoms: N_60  and  CA_61 
REMARK   25  A    between atoms: CA_61  and  C_66 
REMARK   26  A    between atoms: CA_61  and  CB_62 
REMARK   27  A    between atoms: CB_62  and  CG_63 
REMARK       I    between atoms: C_66  and  N_68 
REMARK   28  A    between atoms: N_68  and  CA_69 
REMARK   29  A    between atoms: CA_69  and  CB_70 
REMARK   30  A    between atoms: CA_69  and  C_77 
REMARK   31  A    between atoms: CB_70  and  CG_71 
REMARK       I    between atoms: C_77  and  N_79 
REMARK   32  A    between atoms: N_79  and  CA_80 
REMARK   33  A    between atoms: CA_80  and  CB_81 
REMARK   34  A    between atoms: CA_80  and  C_91 
REMARK   35  A    between atoms: CB_81  and  CG_82 
REMARK       I    between atoms: C_91  and  N_93 
REMARK   36  A    between atoms: N_93  and  CA_94 
REMARK   37  A    between atoms: CA_94  and  C_95 
REMARK       I    between atoms: C_95  and  N_97 
REMARK   38  A    between atoms: N_97  and  CA_98 
REMARK   39  A    between atoms: CA_98  and  C_101 
REMARK   40  A    between atoms: CA_98  and  CB_99 
REMARK       I    between atoms: C_101  and  N_103 
REMARK   41  A    between atoms: N_103  and  CA_104 
REMARK   42  A    between atoms: CA_104  and  C_105 
ROOT
ATOM      1  CA  ARG     6      -2.698 -25.468   2.715  1.00  0.00     0.186 C 
ENDROOT
BRANCH   1   2
ATOM      2  N   ARG     6      -3.922 -26.267   2.962  1.00  0.00    -0.229 NA
ATOM      3  C   TYR     5      -4.068 -27.040   4.046  1.00  0.00     0.275 C 
ATOM      4  O   TYR     5      -3.206 -27.115   4.922  1.00  0.00    -0.268 OA
BRANCH   3   5
ATOM      5  CA  TYR     5      -5.416 -27.758   4.218  1.00  0.00     0.191 C 
BRANCH   5   6
ATOM      6  N   TYR     5      -5.290 -29.232   4.355  1.00  0.00    -0.228 NA
ATOM      7  C   GLU     4      -6.306 -30.080   4.127  1.00  0.00     0.274 C 
ATOM      8  O   GLU     4      -7.376 -29.717   3.654  1.00  0.00    -0.268 OA
BRANCH   7   9
ATOM      9  CA  GLU     4      -5.960 -31.582   4.180  1.00  0.00     0.187 C 
BRANCH   9  10
ATOM     10  CB  GLU     4      -7.214 -32.418   3.879  1.00  0.00     0.045 C 
BRANCH  10  11
ATOM     11  CG  GLU     4      -7.072 -33.491   2.777  1.00  0.00     0.100 C 
BRANCH  11  12
ATOM     12  CD  GLU     4      -6.135 -34.643   3.138  1.00  0.00     0.185 C 
ATOM     13  OE1 GLU     4      -4.962 -34.599   2.682  1.00  0.00    -0.647 OA
ATOM     14  OE2 GLU     4      -6.670 -35.731   3.431  1.00  0.00    -0.647 OA
ENDBRANCH  11  12
ENDBRANCH  10  11
ENDBRANCH   9  10
BRANCH   9  15
ATOM     15  N   GLU     4      -5.411 -32.008   5.482  1.00  0.00    -0.229 NA
ATOM     16  C   PRO     3      -4.144 -32.239   5.802  1.00  0.00     0.272 C 
ATOM     17  O   PRO     3      -3.192 -31.778   5.170  1.00  0.00    -0.269 OA
BRANCH  16  18
ATOM     18  CA  PRO     3      -3.904 -32.673   7.249  1.00  0.00     0.165 C 
ATOM     19  N   PRO     3      -4.724 -31.965   8.255  1.00  0.00    -0.312 N 
ATOM     20  CD  PRO     3      -5.187 -32.927   9.288  1.00  0.00     0.105 C 
ATOM     21  C   ASP     2      -4.880 -30.629   8.292  1.00  0.00     0.257 C 
ATOM     22  CG  PRO     3      -4.419 -34.220   8.974  1.00  0.00     0.027 C 
ATOM     23  CB  PRO     3      -4.201 -34.156   7.465  1.00  0.00     0.034 C 
ATOM     24  O   ASP     2      -4.159 -29.895   7.598  1.00  0.00    -0.270 OA
BRANCH  21  25
ATOM     25  CA  ASP     2      -5.692 -29.990   9.441  1.00  0.00     0.195 C 
BRANCH  25  26
ATOM     26  CB  ASP     2      -7.233 -30.147   9.366  1.00  0.00     0.132 C 
BRANCH  26  27
ATOM     27  CG  ASP     2      -7.670 -30.484   7.929  1.00  0.00     0.188 C 
ATOM     28  OD2 ASP     2      -7.910 -29.495   7.190  1.00  0.00    -0.647 OA
ATOM     29  OD1 ASP     2      -8.289 -31.565   7.766  1.00  0.00    -0.647 OA
ENDBRANCH  26  27
ENDBRANCH  25  26
BRANCH  25  30
ATOM     30  N   ASP     2      -5.523 -28.527   9.491  1.00  0.00    -0.228 NA
ATOM     31  C   TYR     1      -5.235 -27.807  10.550  1.00  0.00     0.289 C 
ATOM     32  O   TYR     1      -4.915 -28.202  11.675  1.00  0.00    -0.268 OA
BRANCH  31  33
ATOM     33  CA  TYR     1      -5.354 -26.311  10.272  1.00  0.00     0.385 C 
ATOM     34  N   TYR     1      -4.033 -25.827   9.837  1.00  0.00     0.626 N 
BRANCH  33  35
ATOM     35  CB  TYR     1      -6.425 -26.131   9.199  1.00  0.00     0.075 C 
BRANCH  35  36
ATOM     36  CG  TYR     1      -7.847 -26.053   9.776  1.00  0.00    -0.019 A 
ATOM     37  CD2 TYR     1      -8.138 -25.257  10.873  1.00  0.00    -0.002 A 
ATOM     38  CE2 TYR     1      -9.451 -25.097  11.290  1.00  0.00     0.027 A 
ATOM     39  CZ  TYR     1     -10.469 -25.752  10.598  1.00  0.00     0.131 A 
ATOM     40  CE1 TYR     1     -10.167 -26.578   9.530  1.00  0.00     0.027 A 
ATOM     41  OH  TYR     1     -11.760 -25.469  10.863  1.00  0.00    -0.190 OA
ATOM     42  CD1 TYR     1      -8.854 -26.737   9.113  1.00  0.00    -0.002 A 
ENDBRANCH  35  36
ENDBRANCH  33  35
ENDBRANCH  31  33
ENDBRANCH  25  30
ENDBRANCH  21  25
ENDBRANCH  16  18
ENDBRANCH   9  15
ENDBRANCH   7   9
ENDBRANCH   5   6
BRANCH   5  43
ATOM     43  CB  TYR     5      -6.197 -27.182   5.411  1.00  0.00     0.060 C 
BRANCH  43  44
ATOM     44  CG  TYR     5      -7.400 -26.333   4.967  1.00  0.00    -0.020 A 
ATOM     45  CD2 TYR     5      -8.677 -26.617   5.433  1.00  0.00    -0.002 A 
ATOM     46  CE2 TYR     5      -9.758 -25.839   5.031  1.00  0.00     0.027 A 
ATOM     47  CZ  TYR     5      -9.562 -24.776   4.163  1.00  0.00     0.131 A 
ATOM     48  CE1 TYR     5      -8.284 -24.474   3.705  1.00  0.00     0.027 A 
ATOM     49  OH  TYR     5     -10.621 -24.105   3.659  1.00  0.00    -0.190 OA
ATOM     50  CD1 TYR     5      -7.204 -25.261   4.103  1.00  0.00    -0.002 A 
ENDBRANCH  43  44
ENDBRANCH   5  43
ENDBRANCH   3   5
ENDBRANCH   1   2
BRANCH   1  51
ATOM     51  CB  ARG     6      -1.894 -25.969   1.520  1.00  0.00     0.036 C 
BRANCH  51  52
ATOM     52  CG  ARG     6      -2.505 -27.195   0.837  1.00  0.00     0.029 C 
BRANCH  52  53
ATOM     53  CD  ARG     6      -1.678 -28.441   1.141  1.00  0.00     0.145 C 
BRANCH  53  54
ATOM     54  NE  ARG     6      -2.531 -29.639   1.204  1.00  0.00    -0.083 NA
ATOM     55  CZ  ARG     6      -2.230 -30.779   1.855  1.00  0.00     0.782 C 
ATOM     56  NH2 ARG     6      -3.040 -31.837   1.778  1.00  0.00     0.063 N 
ATOM     57  NH1 ARG     6      -1.081 -30.893   2.511  1.00  0.00     0.063 N 
ENDBRANCH  53  54
ENDBRANCH  52  53
ENDBRANCH  51  52
ENDBRANCH   1  51
BRANCH   1  58
ATOM     58  C   ARG     6      -3.007 -23.990   2.447  1.00  0.00     0.274 C 
ATOM     59  N   ASN     7      -4.253 -23.604   2.706  1.00  0.00    -0.228 NA
ATOM     60  O   ARG     6      -2.115 -23.258   2.016  1.00  0.00    -0.268 OA
BRANCH  59  61
ATOM     61  CA  ASN     7      -4.711 -22.203   2.604  1.00  0.00     0.196 C 
BRANCH  61  62
ATOM     62  C   ASN     7      -5.201 -21.666   3.963  1.00  0.00     0.275 C 
ATOM     63  N   PHE     8      -4.688 -22.237   5.063  1.00  0.00    -0.228 NA
ATOM     64  O   ASN     7      -5.692 -20.554   3.974  1.00  0.00    -0.268 OA
BRANCH  63  65
ATOM     65  CA  PHE     8      -4.970 -21.804   6.453  1.00  0.00     0.191 C 
BRANCH  65  66
ATOM     66  CB  PHE     8      -5.472 -23.020   7.243  1.00  0.00     0.060 C 
BRANCH  66  67
ATOM     67  CG  PHE     8      -6.880 -22.851   7.844  1.00  0.00    -0.020 A 
ATOM     68  CD1 PHE     8      -7.980 -23.396   7.195  1.00  0.00    -0.004 A 
ATOM     69  CE1 PHE     8      -9.264 -23.156   7.684  1.00  0.00    -0.000 A 
ATOM     70  CZ  PHE     8      -9.433 -22.387   8.824  1.00  0.00    -0.000 A 
ATOM     71  CE2 PHE     8      -8.331 -21.852   9.484  1.00  0.00    -0.000 A 
ATOM     72  CD2 PHE     8      -7.048 -22.092   8.995  1.00  0.00    -0.004 A 
ENDBRANCH  66  67
ENDBRANCH  65  66
BRANCH  65  73
ATOM     73  C   PHE     8      -3.792 -21.104   7.169  1.00  0.00     0.275 C 
ATOM     74  N   TRP     9      -2.646 -21.027   6.491  1.00  0.00    -0.228 NA
ATOM     75  O   PHE     8      -3.838 -20.866   8.379  1.00  0.00    -0.268 OA
BRANCH  74  76
ATOM     76  CA  TRP     9      -1.475 -20.276   7.007  1.00  0.00     0.191 C 
BRANCH  76  77
ATOM     77  CB  TRP     9      -0.213 -21.133   6.816  1.00  0.00     0.062 C 
BRANCH  77  78
ATOM     78  CG  TRP     9      -0.496 -22.634   6.839  1.00  0.00     0.001 A 
ATOM     79  CD1 TRP     9      -0.822 -23.351   7.910  1.00  0.00     0.095 A 
ATOM     80  NE1 TRP     9      -0.706 -24.645   7.637  1.00  0.00    -0.244 NA
ATOM     81  CE2 TRP     9      -0.323 -24.798   6.378  1.00  0.00     0.081 A 
ATOM     82  CD2 TRP     9      -0.163 -23.535   5.832  1.00  0.00     0.015 A 
ATOM     83  CZ2 TRP     9       0.024 -25.920   5.625  1.00  0.00     0.019 A 
ATOM     84  CE3 TRP     9       0.352 -23.373   4.554  1.00  0.00     0.001 A 
ATOM     85  CZ3 TRP     9       0.711 -24.489   3.806  1.00  0.00     0.000 A 
ATOM     86  CH2 TRP     9       0.526 -25.762   4.341  1.00  0.00     0.002 A 
ENDBRANCH  77  78
ENDBRANCH  76  77
BRANCH  76  87
ATOM     87  C   TRP     9      -1.302 -18.864   6.402  1.00  0.00     0.275 C 
ATOM     88  O   TRP     9      -0.995 -18.717   5.223  1.00  0.00    -0.268 OA
ATOM     89  N   GLY    10      -1.601 -17.841   7.202  1.00  0.00    -0.226 NA
BRANCH  89  90
ATOM     90  CA  GLY    10      -1.540 -16.411   6.792  1.00  0.00     0.218 C 
BRANCH  90  91
ATOM     91  C   GLY    10      -2.384 -15.428   7.620  1.00  0.00     0.277 C 
ATOM     92  N   CYS    11      -3.460 -15.958   8.200  1.00  0.00    -0.228 NA
ATOM     93  O   GLY    10      -2.155 -14.224   7.582  1.00  0.00    -0.268 OA
BRANCH  92  94
ATOM     94  CA  CYS    11      -4.431 -15.255   9.066  1.00  0.00     0.198 C 
BRANCH  94  95
ATOM     95  C   CYS    11      -4.834 -16.210  10.207  1.00  0.00     0.275 C 
ATOM     96  O   CYS    11      -4.439 -17.371  10.179  1.00  0.00    -0.268 OA
ATOM     97  N   GLY    12      -5.754 -15.758  11.047  1.00  0.00    -0.225 NA
BRANCH  97  98
ATOM     98  CA  GLY    12      -6.262 -16.548  12.180  1.00  0.00     0.226 C 
BRANCH  98  99
ATOM     99  C   GLY    12      -7.737 -16.908  11.888  1.00  0.00     0.211 C 
ATOM    100  O1  GLY    12      -7.945 -17.710  10.943  1.00  0.00    -0.646 OA
ATOM    101  O2  GLY    12      -8.611 -16.413  12.623  1.00  0.00    -0.646 OA
ENDBRANCH  98  99
ENDBRANCH  97  98
ENDBRANCH  94  95
BRANCH  94 102
ATOM    102  CB  CYS    11      -5.717 -14.971   8.293  1.00  0.00     0.103 C 
ATOM    103  SG  CYS    11      -6.079 -16.094   6.888  1.00  0.00    -0.080 SA
ENDBRANCH  94 102
ENDBRANCH  92  94
ENDBRANCH  90  91
ENDBRANCH  89  90
ENDBRANCH  76  87
ENDBRANCH  74  76
ENDBRANCH  65  73
ENDBRANCH  63  65
ENDBRANCH  61  62
BRANCH  61 104
ATOM    104  CB  ASN     7      -5.797 -22.049   1.532  1.00  0.00     0.126 C 
BRANCH 104 105
ATOM    105  CG  ASN     7      -5.420 -22.600   0.144  1.00  0.00     0.276 C 
ATOM    106  ND2 ASN     7      -5.979 -23.738  -0.195  1.00  0.00    -0.107 N 
ATOM    107  OD1 ASN     7      -4.540 -22.146  -0.577  1.00  0.00    -0.269 OA
ENDBRANCH 104 105
ENDBRANCH  61 104
ENDBRANCH  59  61
ENDBRANCH   1  58
TORSDOF 42
ENDMDL
MODEL 6
REMARK VINA RESULT:      -6.2     13.154     18.122
REMARK WARNING: 32 MAX_TORS EXCEEDED!!!
REMARK  42 active torsions:
REMARK  status: ('A' for Active; 'I' for Inactive)
REMARK    1  A    between atoms: CA_2  and  CB_3 
REMARK    2  A    between atoms: CA_2  and  C_11 
REMARK    3  A    between atoms: CB_3  and  CG_4 
REMARK       I    between atoms: C_11  and  N_13 
REMARK    4  A    between atoms: N_13  and  CA_14 
REMARK    5  A    between atoms: CA_14  and  CB_15 
REMARK    6  A    between atoms: CA_14  and  C_19 
REMARK    7  A    between atoms: CB_15  and  CG_16 
REMARK       I    between atoms: C_19  and  N_21 
REMARK    8  A    between atoms: CA_22  and  C_26 
REMARK       I    between atoms: C_26  and  N_28 
REMARK    9  A    between atoms: N_28  and  CA_29 
REMARK   10  A    between atoms: CA_29  and  C_35 
REMARK   11  A    between atoms: CA_29  and  CB_30 
REMARK   12  A    between atoms: CB_30  and  CG_31 
REMARK   13  A    between atoms: CG_31  and  CD_32 
REMARK       I    between atoms: C_35  and  N_37 
REMARK   14  A    between atoms: N_37  and  CA_38 
REMARK   15  A    between atoms: CA_38  and  CB_39 
REMARK   16  A    between atoms: CA_38  and  C_47 
REMARK   17  A    between atoms: CB_39  and  CG_40 
REMARK       I    between atoms: C_47  and  N_49 
REMARK   18  A    between atoms: N_49  and  CA_50 
REMARK   19  A    between atoms: CA_50  and  CB_51 
REMARK   20  A    between atoms: CA_50  and  C_58 
REMARK   21  A    between atoms: CB_51  and  CG_52 
REMARK   22  A    between atoms: CG_52  and  CD_53 
REMARK   23  A    between atoms: CD_53  and  NE_54 
REMARK       I    between atoms: C_58  and  N_60 
REMARK   24  A    between atoms: N_60  and  CA_61 
REMARK   25  A    between atoms: CA_61  and  C_66 
REMARK   26  A    between atoms: CA_61  and  CB_62 
REMARK   27  A    between atoms: CB_62  and  CG_63 
REMARK       I    between atoms: C_66  and  N_68 
REMARK   28  A    between atoms: N_68  and  CA_69 
REMARK   29  A    between atoms: CA_69  and  CB_70 
REMARK   30  A    between atoms: CA_69  and  C_77 
REMARK   31  A    between atoms: CB_70  and  CG_71 
REMARK       I    between atoms: C_77  and  N_79 
REMARK   32  A    between atoms: N_79  and  CA_80 
REMARK   33  A    between atoms: CA_80  and  CB_81 
REMARK   34  A    between atoms: CA_80  and  C_91 
REMARK   35  A    between atoms: CB_81  and  CG_82 
REMARK       I    between atoms: C_91  and  N_93 
REMARK   36  A    between atoms: N_93  and  CA_94 
REMARK   37  A    between atoms: CA_94  and  C_95 
REMARK       I    between atoms: C_95  and  N_97 
REMARK   38  A    between atoms: N_97  and  CA_98 
REMARK   39  A    between atoms: CA_98  and  C_101 
REMARK   40  A    between atoms: CA_98  and  CB_99 
REMARK       I    between atoms: C_101  and  N_103 
REMARK   41  A    between atoms: N_103  and  CA_104 
REMARK   42  A    between atoms: CA_104  and  C_105 
ROOT
ATOM      1  CA  ARG     6      -4.894 -21.998   1.399  1.00  0.00     0.186 C 
ENDROOT
BRANCH   1   2
ATOM      2  N   ARG     6      -4.384 -21.744   2.766  1.00  0.00    -0.229 NA
ATOM      3  C   TYR     5      -3.993 -20.529   3.172  1.00  0.00     0.275 C 
ATOM      4  O   TYR     5      -4.061 -19.538   2.444  1.00  0.00    -0.268 OA
BRANCH   3   5
ATOM      5  CA  TYR     5      -3.554 -20.388   4.639  1.00  0.00     0.191 C 
BRANCH   5   6
ATOM      6  N   TYR     5      -4.344 -19.385   5.400  1.00  0.00    -0.228 NA
ATOM      7  C   GLU     4      -5.681 -19.436   5.512  1.00  0.00     0.274 C 
ATOM      8  O   GLU     4      -6.342 -20.387   5.115  1.00  0.00    -0.268 OA
BRANCH   7   9
ATOM      9  CA  GLU     4      -6.321 -18.396   6.455  1.00  0.00     0.187 C 
BRANCH   9  10
ATOM     10  CB  GLU     4      -5.400 -17.172   6.585  1.00  0.00     0.045 C 
BRANCH  10  11
ATOM     11  CG  GLU     4      -4.663 -17.012   7.933  1.00  0.00     0.100 C 
BRANCH  11  12
ATOM     12  CD  GLU     4      -3.139 -16.997   7.818  1.00  0.00     0.185 C 
ATOM     13  OE1 GLU     4      -2.479 -16.922   8.888  1.00  0.00    -0.647 OA
ATOM     14  OE2 GLU     4      -2.661 -16.593   6.739  1.00  0.00    -0.647 OA
ENDBRANCH  11  12
ENDBRANCH  10  11
ENDBRANCH   9  10
BRANCH   9  15
ATOM     15  N   GLU     4      -6.595 -18.925   7.805  1.00  0.00    -0.229 NA
ATOM     16  C   PRO     3      -7.720 -19.462   8.263  1.00  0.00     0.272 C 
ATOM     17  O   PRO     3      -8.588 -19.940   7.531  1.00  0.00    -0.269 OA
BRANCH  16  18
ATOM     18  CA  PRO     3      -7.680 -19.915   9.724  1.00  0.00     0.165 C 
ATOM     19  N   PRO     3      -6.475 -20.683  10.103  1.00  0.00    -0.312 N 
ATOM     20  CD  PRO     3      -6.022 -20.265  11.454  1.00  0.00     0.105 C 
ATOM     21  C   ASP     2      -5.980 -21.708   9.385  1.00  0.00     0.257 C 
ATOM     22  CG  PRO     3      -7.148 -19.355  11.967  1.00  0.00     0.027 C 
ATOM     23  CB  PRO     3      -7.725 -18.739  10.696  1.00  0.00     0.034 C 
ATOM     24  O   ASP     2      -6.644 -22.204   8.462  1.00  0.00    -0.270 OA
BRANCH  21  25
ATOM     25  CA  ASP     2      -4.763 -22.495   9.922  1.00  0.00     0.195 C 
BRANCH  25  26
ATOM     26  CB  ASP     2      -3.603 -22.738   8.923  1.00  0.00     0.132 C 
BRANCH  26  27
ATOM     27  CG  ASP     2      -2.550 -21.620   9.039  1.00  0.00     0.188 C 
ATOM     28  OD2 ASP     2      -2.881 -20.511   8.547  1.00  0.00    -0.647 OA
ATOM     29  OD1 ASP     2      -1.346 -21.978   9.050  1.00  0.00    -0.647 OA
ENDBRANCH  26  27
ENDBRANCH  25  26
BRANCH  25  30
ATOM     30  N   ASP     2      -5.125 -23.864  10.328  1.00  0.00    -0.228 NA
ATOM     31  C   TYR     1      -4.566 -24.574  11.280  1.00  0.00     0.289 C 
ATOM     32  O   TYR     1      -3.729 -24.207  12.112  1.00  0.00    -0.268 OA
BRANCH  31  33
ATOM     33  CA  TYR     1      -5.050 -26.021  11.273  1.00  0.00     0.385 C 
ATOM     34  N   TYR     1      -4.945 -26.538  12.648  1.00  0.00     0.626 N 
BRANCH  33  35
ATOM     35  CB  TYR     1      -6.487 -26.018  10.758  1.00  0.00     0.075 C 
BRANCH  35  36
ATOM     36  CG  TYR     1      -6.803 -27.217   9.852  1.00  0.00    -0.019 A 
ATOM     37  CD2 TYR     1      -6.234 -28.462  10.076  1.00  0.00    -0.002 A 
ATOM     38  CE2 TYR     1      -6.639 -29.558   9.329  1.00  0.00     0.027 A 
ATOM     39  CZ  TYR     1      -7.616 -29.390   8.349  1.00  0.00     0.131 A 
ATOM     40  CE1 TYR     1      -8.149 -28.137   8.103  1.00  0.00     0.027 A 
ATOM     41  OH  TYR     1      -8.159 -30.464   7.742  1.00  0.00    -0.190 OA
ATOM     42  CD1 TYR     1      -7.745 -27.041   8.850  1.00  0.00    -0.002 A 
ENDBRANCH  35  36
ENDBRANCH  33  35
ENDBRANCH  31  33
ENDBRANCH  25  30
ENDBRANCH  21  25
ENDBRANCH  16  18
ENDBRANCH   9  15
ENDBRANCH   7   9
ENDBRANCH   5   6
BRANCH   5  43
ATOM     43  CB  TYR     5      -3.595 -21.747   5.358  1.00  0.00     0.060 C 
BRANCH  43  44
ATOM     44  CG  TYR     5      -2.318 -22.571   5.119  1.00  0.00    -0.020 A 
ATOM     45  CD2 TYR     5      -1.139 -21.951   4.728  1.00  0.00    -0.002 A 
ATOM     46  CE2 TYR     5       0.013 -22.704   4.522  1.00  0.00     0.027 A 
ATOM     47  CZ  TYR     5      -0.015 -24.077   4.707  1.00  0.00     0.131 A 
ATOM     48  CE1 TYR     5      -1.187 -24.704   5.116  1.00  0.00     0.027 A 
ATOM     49  OH  TYR     5       1.057 -24.830   4.376  1.00  0.00    -0.190 OA
ATOM     50  CD1 TYR     5      -2.342 -23.948   5.313  1.00  0.00    -0.002 A 
ENDBRANCH  43  44
ENDBRANCH   5  43
ENDBRANCH   3   5
ENDBRANCH   1   2
BRANCH   1  51
ATOM     51  CB  ARG     6      -4.022 -22.970   0.611  1.00  0.00     0.036 C 
BRANCH  51  52
ATOM     52  CG  ARG     6      -2.882 -23.578   1.432  1.00  0.00     0.029 C 
BRANCH  52  53
ATOM     53  CD  ARG     6      -2.426 -24.896   0.813  1.00  0.00     0.145 C 
BRANCH  53  54
ATOM     54  NE  ARG     6      -2.437 -25.980   1.809  1.00  0.00    -0.083 NA
ATOM     55  CZ  ARG     6      -1.376 -26.732   2.158  1.00  0.00     0.782 C 
ATOM     56  NH2 ARG     6      -1.516 -27.746   3.014  1.00  0.00     0.063 N 
ATOM     57  NH1 ARG     6      -0.193 -26.528   1.588  1.00  0.00     0.063 N 
ENDBRANCH  53  54
ENDBRANCH  52  53
ENDBRANCH  51  52
ENDBRANCH   1  51
BRANCH   1  58
ATOM     58  C   ARG     6      -6.312 -22.585   1.401  1.00  0.00     0.274 C 
ATOM     59  N   ASN     7      -6.391 -23.904   1.248  1.00  0.00    -0.228 NA
ATOM     60  O   ARG     6      -7.275 -21.829   1.537  1.00  0.00    -0.268 OA
BRANCH  59  61
ATOM     61  CA  ASN     7      -7.659 -24.658   1.322  1.00  0.00     0.196 C 
BRANCH  61  62
ATOM     62  C   ASN     7      -7.935 -25.164   2.751  1.00  0.00     0.275 C 
ATOM     63  N   PHE     8      -7.077 -24.781   3.708  1.00  0.00    -0.228 NA
ATOM     64  O   ASN     7      -9.067 -25.531   3.000  1.00  0.00    -0.268 OA
BRANCH  63  65
ATOM     65  CA  PHE     8      -7.221 -25.093   5.151  1.00  0.00     0.191 C 
BRANCH  65  66
ATOM     66  CB  PHE     8      -5.864 -24.858   5.831  1.00  0.00     0.060 C 
BRANCH  66  67
ATOM     67  CG  PHE     8      -5.188 -26.138   6.359  1.00  0.00    -0.020 A 
ATOM     68  CD1 PHE     8      -4.299 -26.062   7.422  1.00  0.00    -0.004 A 
ATOM     69  CE1 PHE     8      -3.610 -27.203   7.833  1.00  0.00    -0.000 A 
ATOM     70  CZ  PHE     8      -3.830 -28.409   7.188  1.00  0.00    -0.000 A 
ATOM     71  CE2 PHE     8      -4.731 -28.490   6.131  1.00  0.00    -0.000 A 
ATOM     72  CD2 PHE     8      -5.420 -27.349   5.720  1.00  0.00    -0.004 A 
ENDBRANCH  66  67
ENDBRANCH  65  66
BRANCH  65  73
ATOM     73  C   PHE     8      -8.359 -24.336   5.872  1.00  0.00     0.275 C 
ATOM     74  N   TRP     9      -9.330 -25.085   6.398  1.00  0.00    -0.228 NA
ATOM     75  O   PHE     8      -8.489 -23.116   5.745  1.00  0.00    -0.268 OA
BRANCH  74  76
ATOM     76  CA  TRP     9     -10.416 -24.501   7.222  1.00  0.00     0.191 C 
BRANCH  76  77
ATOM     77  CB  TRP     9      -9.794 -23.812   8.448  1.00  0.00     0.062 C 
BRANCH  77  78
ATOM     78  CG  TRP     9     -10.164 -24.484   9.769  1.00  0.00     0.001 A 
ATOM     79  CD1 TRP     9     -11.175 -25.326   9.960  1.00  0.00     0.095 A 
ATOM     80  NE1 TRP     9     -11.387 -25.484  11.261  1.00  0.00    -0.244 NA
ATOM     81  CE2 TRP     9     -10.507 -24.766  11.943  1.00  0.00     0.081 A 
ATOM     82  CD2 TRP     9      -9.711 -24.097  11.026  1.00  0.00     0.015 A 
ATOM     83  CZ2 TRP     9     -10.347 -24.510  13.305  1.00  0.00     0.019 A 
ATOM     84  CE3 TRP     9      -8.771 -23.168  11.446  1.00  0.00     0.001 A 
ATOM     85  CZ3 TRP     9      -8.619 -22.901  12.803  1.00  0.00     0.000 A 
ATOM     86  CH2 TRP     9      -9.398 -23.591  13.729  1.00  0.00     0.002 A 
ENDBRANCH  77  78
ENDBRANCH  76  77
BRANCH  76  87
ATOM     87  C   TRP     9     -11.364 -23.551   6.454  1.00  0.00     0.275 C 
ATOM     88  O   TRP     9     -12.106 -23.978   5.575  1.00  0.00    -0.268 OA
ATOM     89  N   GLY    10     -11.394 -22.287   6.872  1.00  0.00    -0.226 NA
BRANCH  89  90
ATOM     90  CA  GLY    10     -12.271 -21.233   6.291  1.00  0.00     0.218 C 
BRANCH  90  91
ATOM     91  C   GLY    10     -11.675 -20.408   5.139  1.00  0.00     0.277 C 
ATOM     92  N   CYS    11     -12.267 -19.234   4.922  1.00  0.00    -0.228 NA
ATOM     93  O   GLY    10     -10.839 -20.899   4.389  1.00  0.00    -0.268 OA
BRANCH  92  94
ATOM     94  CA  CYS    11     -11.889 -18.233   3.900  1.00  0.00     0.198 C 
BRANCH  94  95
ATOM     95  C   CYS    11     -11.257 -17.027   4.622  1.00  0.00     0.275 C 
ATOM     96  O   CYS    11     -11.886 -16.471   5.515  1.00  0.00    -0.268 OA
ATOM     97  N   GLY    12     -10.144 -16.546   4.088  1.00  0.00    -0.225 NA
BRANCH  97  98
ATOM     98  CA  GLY    12      -9.422 -15.391   4.642  1.00  0.00     0.226 C 
BRANCH  98  99
ATOM     99  C   GLY    12      -7.923 -15.556   4.302  1.00  0.00     0.211 C 
ATOM    100  O1  GLY    12      -7.589 -16.622   3.725  1.00  0.00    -0.646 OA
ATOM    101  O2  GLY    12      -7.156 -14.617   4.586  1.00  0.00    -0.646 OA
ENDBRANCH  98  99
ENDBRANCH  97  98
ENDBRANCH  94  95
BRANCH  94 102
ATOM    102  CB  CYS    11     -13.138 -17.690   3.209  1.00  0.00     0.103 C 
ATOM    103  SG  CYS    11     -14.479 -18.902   2.894  1.00  0.00    -0.080 SA
ENDBRANCH  94 102
ENDBRANCH  92  94
ENDBRANCH  90  91
ENDBRANCH  89  90
ENDBRANCH  76  87
ENDBRANCH  74  76
ENDBRANCH  65  73
ENDBRANCH  63  65
ENDBRANCH  61  62
BRANCH  61 104
ATOM    104  CB  ASN     7      -7.676 -25.818   0.319  1.00  0.00     0.126 C 
BRANCH 104 105
ATOM    105  CG  ASN     7      -7.024 -27.119   0.823  1.00  0.00     0.276 C 
ATOM    106  ND2 ASN     7      -5.721 -27.202   0.682  1.00  0.00    -0.107 N 
ATOM    107  OD1 ASN     7      -7.634 -28.115   1.190  1.00  0.00    -0.269 OA
ENDBRANCH 104 105
ENDBRANCH  61 104
ENDBRANCH  59  61
ENDBRANCH   1  58
TORSDOF 42
ENDMDL
MODEL 7
REMARK VINA RESULT:      -6.1      8.405     18.613
REMARK WARNING: 32 MAX_TORS EXCEEDED!!!
REMARK  42 active torsions:
REMARK  status: ('A' for Active; 'I' for Inactive)
REMARK    1  A    between atoms: CA_2  and  CB_3 
REMARK    2  A    between atoms: CA_2  and  C_11 
REMARK    3  A    between atoms: CB_3  and  CG_4 
REMARK       I    between atoms: C_11  and  N_13 
REMARK    4  A    between atoms: N_13  and  CA_14 
REMARK    5  A    between atoms: CA_14  and  CB_15 
REMARK    6  A    between atoms: CA_14  and  C_19 
REMARK    7  A    between atoms: CB_15  and  CG_16 
REMARK       I    between atoms: C_19  and  N_21 
REMARK    8  A    between atoms: CA_22  and  C_26 
REMARK       I    between atoms: C_26  and  N_28 
REMARK    9  A    between atoms: N_28  and  CA_29 
REMARK   10  A    between atoms: CA_29  and  C_35 
REMARK   11  A    between atoms: CA_29  and  CB_30 
REMARK   12  A    between atoms: CB_30  and  CG_31 
REMARK   13  A    between atoms: CG_31  and  CD_32 
REMARK       I    between atoms: C_35  and  N_37 
REMARK   14  A    between atoms: N_37  and  CA_38 
REMARK   15  A    between atoms: CA_38  and  CB_39 
REMARK   16  A    between atoms: CA_38  and  C_47 
REMARK   17  A    between atoms: CB_39  and  CG_40 
REMARK       I    between atoms: C_47  and  N_49 
REMARK   18  A    between atoms: N_49  and  CA_50 
REMARK   19  A    between atoms: CA_50  and  CB_51 
REMARK   20  A    between atoms: CA_50  and  C_58 
REMARK   21  A    between atoms: CB_51  and  CG_52 
REMARK   22  A    between atoms: CG_52  and  CD_53 
REMARK   23  A    between atoms: CD_53  and  NE_54 
REMARK       I    between atoms: C_58  and  N_60 
REMARK   24  A    between atoms: N_60  and  CA_61 
REMARK   25  A    between atoms: CA_61  and  C_66 
REMARK   26  A    between atoms: CA_61  and  CB_62 
REMARK   27  A    between atoms: CB_62  and  CG_63 
REMARK       I    between atoms: C_66  and  N_68 
REMARK   28  A    between atoms: N_68  and  CA_69 
REMARK   29  A    between atoms: CA_69  and  CB_70 
REMARK   30  A    between atoms: CA_69  and  C_77 
REMARK   31  A    between atoms: CB_70  and  CG_71 
REMARK       I    between atoms: C_77  and  N_79 
REMARK   32  A    between atoms: N_79  and  CA_80 
REMARK   33  A    between atoms: CA_80  and  CB_81 
REMARK   34  A    between atoms: CA_80  and  C_91 
REMARK   35  A    between atoms: CB_81  and  CG_82 
REMARK       I    between atoms: C_91  and  N_93 
REMARK   36  A    between atoms: N_93  and  CA_94 
REMARK   37  A    between atoms: CA_94  and  C_95 
REMARK       I    between atoms: C_95  and  N_97 
REMARK   38  A    between atoms: N_97  and  CA_98 
REMARK   39  A    between atoms: CA_98  and  C_101 
REMARK   40  A    between atoms: CA_98  and  CB_99 
REMARK       I    between atoms: C_101  and  N_103 
REMARK   41  A    between atoms: N_103  and  CA_104 
REMARK   42  A    between atoms: CA_104  and  C_105 
ROOT
ATOM      1  CA  ARG     6      15.763   1.665   3.558  1.00  0.00     0.186 C 
ENDROOT
BRANCH   1   2
ATOM      2  N   ARG     6      15.166   2.820   4.268  1.00  0.00    -0.229 NA
ATOM      3  C   TYR     5      15.086   4.038   3.718  1.00  0.00     0.275 C 
ATOM      4  O   TYR     5      15.477   4.270   2.573  1.00  0.00    -0.268 OA
BRANCH   3   5
ATOM      5  CA  TYR     5      14.377   5.131   4.534  1.00  0.00     0.191 C 
BRANCH   5   6
ATOM      6  N   TYR     5      13.872   4.656   5.848  1.00  0.00    -0.228 NA
ATOM      7  C   GLU     4      12.565   4.535   6.133  1.00  0.00     0.274 C 
ATOM      8  O   GLU     4      11.690   4.673   5.288  1.00  0.00    -0.268 OA
BRANCH   7   9
ATOM      9  CA  GLU     4      12.225   3.894   7.494  1.00  0.00     0.187 C 
BRANCH   9  10
ATOM     10  CB  GLU     4      12.800   4.753   8.633  1.00  0.00     0.045 C 
BRANCH  10  11
ATOM     11  CG  GLU     4      12.075   6.087   8.915  1.00  0.00     0.100 C 
BRANCH  11  12
ATOM     12  CD  GLU     4      12.734   7.309   8.276  1.00  0.00     0.185 C 
ATOM     13  OE1 GLU     4      12.083   7.916   7.385  1.00  0.00    -0.647 OA
ATOM     14  OE2 GLU     4      13.980   7.353   8.305  1.00  0.00    -0.647 OA
ENDBRANCH  11  12
ENDBRANCH  10  11
ENDBRANCH   9  10
BRANCH   9  15
ATOM     15  N   GLU     4      12.740   2.519   7.635  1.00  0.00    -0.229 NA
ATOM     16  C   PRO     3      12.290   1.411   7.057  1.00  0.00     0.272 C 
ATOM     17  O   PRO     3      11.610   1.413   6.029  1.00  0.00    -0.269 OA
BRANCH  16  18
ATOM     18  CA  PRO     3      13.050   0.133   7.415  1.00  0.00     0.165 C 
ATOM     19  N   PRO     3      12.373  -1.123   7.024  1.00  0.00    -0.312 N 
ATOM     20  CD  PRO     3      13.373  -2.086   6.497  1.00  0.00     0.105 C 
ATOM     21  C   ASP     2      11.075  -1.384   7.268  1.00  0.00     0.257 C 
ATOM     22  CG  PRO     3      14.728  -1.426   6.792  1.00  0.00     0.027 C 
ATOM     23  CB  PRO     3      14.422   0.069   6.748  1.00  0.00     0.034 C 
ATOM     24  O   ASP     2      10.423  -0.658   8.034  1.00  0.00    -0.270 OA
BRANCH  21  25
ATOM     25  CA  ASP     2      10.494  -2.765   6.892  1.00  0.00     0.195 C 
BRANCH  25  26
ATOM     26  CB  ASP     2       9.391  -2.776   5.802  1.00  0.00     0.132 C 
BRANCH  26  27
ATOM     27  CG  ASP     2       9.600  -1.612   4.815  1.00  0.00     0.188 C 
ATOM     28  OD2 ASP     2       8.577  -0.926   4.563  1.00  0.00    -0.647 OA
ATOM     29  OD1 ASP     2      10.495  -1.762   3.947  1.00  0.00    -0.647 OA
ENDBRANCH  26  27
ENDBRANCH  25  26
BRANCH  25  30
ATOM     30  N   ASP     2       9.821  -3.412   8.031  1.00  0.00    -0.228 NA
ATOM     31  C   TYR     1       9.732  -4.701   8.261  1.00  0.00     0.289 C 
ATOM     32  O   TYR     1      10.296  -5.622   7.661  1.00  0.00    -0.268 OA
BRANCH  31  33
ATOM     33  CA  TYR     1       8.779  -5.012   9.412  1.00  0.00     0.385 C 
ATOM     34  N   TYR     1       9.557  -4.980  10.662  1.00  0.00     0.626 N 
BRANCH  33  35
ATOM     35  CB  TYR     1       7.674  -3.959   9.384  1.00  0.00     0.075 C 
BRANCH  35  36
ATOM     36  CG  TYR     1       6.282  -4.555   9.125  1.00  0.00    -0.019 A 
ATOM     37  CD2 TYR     1       6.090  -5.924   9.022  1.00  0.00    -0.002 A 
ATOM     38  CE2 TYR     1       4.808  -6.444   8.924  1.00  0.00     0.027 A 
ATOM     39  CZ  TYR     1       3.720  -5.572   8.925  1.00  0.00     0.131 A 
ATOM     40  CE1 TYR     1       3.920  -4.205   8.986  1.00  0.00     0.027 A 
ATOM     41  OH  TYR     1       2.464  -6.055   9.020  1.00  0.00    -0.190 OA
ATOM     42  CD1 TYR     1       5.202  -3.686   9.084  1.00  0.00    -0.002 A 
ENDBRANCH  35  36
ENDBRANCH  33  35
ENDBRANCH  31  33
ENDBRANCH  25  30
ENDBRANCH  21  25
ENDBRANCH  16  18
ENDBRANCH   9  15
ENDBRANCH   7   9
ENDBRANCH   5   6
BRANCH   5  43
ATOM     43  CB  TYR     5      15.291   6.352   4.729  1.00  0.00     0.060 C 
BRANCH  43  44
ATOM     44  CG  TYR     5      14.569   7.676   4.429  1.00  0.00    -0.020 A 
ATOM     45  CD2 TYR     5      13.728   7.789   3.329  1.00  0.00    -0.002 A 
ATOM     46  CE2 TYR     5      13.074   8.989   3.070  1.00  0.00     0.027 A 
ATOM     47  CZ  TYR     5      13.260  10.076   3.910  1.00  0.00     0.131 A 
ATOM     48  CE1 TYR     5      14.086   9.966   5.023  1.00  0.00     0.027 A 
ATOM     49  OH  TYR     5      12.741  11.281   3.589  1.00  0.00    -0.190 OA
ATOM     50  CD1 TYR     5      14.748   8.764   5.276  1.00  0.00    -0.002 A 
ENDBRANCH  43  44
ENDBRANCH   5  43
ENDBRANCH   3   5
ENDBRANCH   1   2
BRANCH   1  51
ATOM     51  CB  ARG     6      16.687   0.835   4.445  1.00  0.00     0.036 C 
BRANCH  51  52
ATOM     52  CG  ARG     6      18.100   1.410   4.568  1.00  0.00     0.029 C 
BRANCH  52  53
ATOM     53  CD  ARG     6      18.445   1.663   6.032  1.00  0.00     0.145 C 
BRANCH  53  54
ATOM     54  NE  ARG     6      18.342   3.096   6.359  1.00  0.00    -0.083 NA
ATOM     55  CZ  ARG     6      17.369   3.661   7.098  1.00  0.00     0.782 C 
ATOM     56  NH2 ARG     6      17.325   4.984   7.263  1.00  0.00     0.063 N 
ATOM     57  NH1 ARG     6      16.390   2.916   7.600  1.00  0.00     0.063 N 
ENDBRANCH  53  54
ENDBRANCH  52  53
ENDBRANCH  51  52
ENDBRANCH   1  51
BRANCH   1  58
ATOM     58  C   ARG     6      14.703   0.702   3.008  1.00  0.00     0.274 C 
ATOM     59  N   ASN     7      15.084  -0.050   1.979  1.00  0.00    -0.228 NA
ATOM     60  O   ARG     6      13.586   0.678   3.527  1.00  0.00    -0.268 OA
BRANCH  59  61
ATOM     61  CA  ASN     7      14.236  -1.101   1.380  1.00  0.00     0.196 C 
BRANCH  61  62
ATOM     62  C   ASN     7      15.016  -2.416   1.186  1.00  0.00     0.275 C 
ATOM     63  N   PHE     8      15.330  -3.105   2.294  1.00  0.00    -0.228 NA
ATOM     64  O   ASN     7      14.960  -2.937   0.089  1.00  0.00    -0.268 OA
BRANCH  63  65
ATOM     65  CA  PHE     8      15.998  -4.429   2.309  1.00  0.00     0.191 C 
BRANCH  65  66
ATOM     66  CB  PHE     8      17.485  -4.220   1.990  1.00  0.00     0.060 C 
BRANCH  66  67
ATOM     67  CG  PHE     8      18.354  -3.866   3.211  1.00  0.00    -0.020 A 
ATOM     68  CD1 PHE     8      18.350  -2.572   3.712  1.00  0.00    -0.004 A 
ATOM     69  CE1 PHE     8      19.213  -2.227   4.753  1.00  0.00    -0.000 A 
ATOM     70  CZ  PHE     8      20.058  -3.184   5.290  1.00  0.00    -0.000 A 
ATOM     71  CE2 PHE     8      20.054  -4.485   4.799  1.00  0.00    -0.000 A 
ATOM     72  CD2 PHE     8      19.191  -4.830   3.758  1.00  0.00    -0.004 A 
ENDBRANCH  66  67
ENDBRANCH  65  66
BRANCH  65  73
ATOM     73  C   PHE     8      15.801  -5.245   3.606  1.00  0.00     0.275 C 
ATOM     74  N   TRP     9      15.805  -6.573   3.479  1.00  0.00    -0.228 NA
ATOM     75  O   PHE     8      15.411  -4.702   4.643  1.00  0.00    -0.268 OA
BRANCH  74  76
ATOM     76  CA  TRP     9      15.751  -7.477   4.654  1.00  0.00     0.191 C 
BRANCH  76  77
ATOM     77  CB  TRP     9      14.500  -8.364   4.539  1.00  0.00     0.062 C 
BRANCH  77  78
ATOM     78  CG  TRP     9      14.005  -8.884   5.888  1.00  0.00     0.001 A 
ATOM     79  CD1 TRP     9      13.399 -10.048   6.101  1.00  0.00     0.095 A 
ATOM     80  NE1 TRP     9      12.848 -10.052   7.308  1.00  0.00    -0.244 NA
ATOM     81  CE2 TRP     9      13.099  -8.901   7.914  1.00  0.00     0.081 A 
ATOM     82  CD2 TRP     9      13.828  -8.116   7.034  1.00  0.00     0.015 A 
ATOM     83  CZ2 TRP     9      12.687  -8.363   9.133  1.00  0.00     0.019 A 
ATOM     84  CE3 TRP     9      14.137  -6.800   7.345  1.00  0.00     0.001 A 
ATOM     85  CZ3 TRP     9      13.716  -6.257   8.555  1.00  0.00     0.000 A 
ATOM     86  CH2 TRP     9      13.006  -7.052   9.453  1.00  0.00     0.002 A 
ENDBRANCH  77  78
ENDBRANCH  76  77
BRANCH  76  87
ATOM     87  C   TRP     9      17.028  -8.319   4.875  1.00  0.00     0.275 C 
ATOM     88  O   TRP     9      17.882  -7.967   5.684  1.00  0.00    -0.268 OA
ATOM     89  N   GLY    10      17.090  -9.477   4.220  1.00  0.00    -0.226 NA
BRANCH  89  90
ATOM     90  CA  GLY    10      18.214 -10.446   4.334  1.00  0.00     0.218 C 
BRANCH  90  91
ATOM     91  C   GLY    10      17.862 -11.839   4.880  1.00  0.00     0.277 C 
ATOM     92  N   CYS    11      16.603 -11.981   5.292  1.00  0.00    -0.228 NA
ATOM     93  O   GLY    10      18.739 -12.674   5.072  1.00  0.00    -0.268 OA
BRANCH  92  94
ATOM     94  CA  CYS    11      15.986 -13.211   5.838  1.00  0.00     0.198 C 
BRANCH  94  95
ATOM     95  C   CYS    11      14.780 -13.576   4.951  1.00  0.00     0.275 C 
ATOM     96  O   CYS    11      14.371 -12.757   4.135  1.00  0.00    -0.268 OA
ATOM     97  N   GLY    12      14.137 -14.689   5.272  1.00  0.00    -0.225 NA
BRANCH  97  98
ATOM     98  CA  GLY    12      12.956 -15.173   4.540  1.00  0.00     0.226 C 
BRANCH  98  99
ATOM     99  C   GLY    12      11.696 -14.647   5.265  1.00  0.00     0.211 C 
ATOM    100  O1  GLY    12      11.693 -14.726   6.520  1.00  0.00    -0.646 OA
ATOM    101  O2  GLY    12      10.790 -14.152   4.569  1.00  0.00    -0.646 OA
ENDBRANCH  98  99
ENDBRANCH  97  98
ENDBRANCH  94  95
BRANCH  94 102
ATOM    102  CB  CYS    11      15.410 -12.938   7.225  1.00  0.00     0.103 C 
ATOM    103  SG  CYS    11      16.522 -12.085   8.409  1.00  0.00    -0.080 SA
ENDBRANCH  94 102
ENDBRANCH  92  94
ENDBRANCH  90  91
ENDBRANCH  89  90
ENDBRANCH  76  87
ENDBRANCH  74  76
ENDBRANCH  65  73
ENDBRANCH  63  65
ENDBRANCH  61  62
BRANCH  61 104
ATOM    104  CB  ASN     7      13.621  -0.631   0.055  1.00  0.00     0.126 C 
BRANCH 104 105
ATOM    105  CG  ASN     7      12.392   0.285   0.201  1.00  0.00     0.276 C 
ATOM    106  ND2 ASN     7      12.636   1.575   0.235  1.00  0.00    -0.107 N 
ATOM    107  OD1 ASN     7      11.254  -0.098   0.439  1.00  0.00    -0.269 OA
ENDBRANCH 104 105
ENDBRANCH  61 104
ENDBRANCH  59  61
ENDBRANCH   1  58
TORSDOF 42
ENDMDL
MODEL 8
REMARK VINA RESULT:      -6.0      3.015      5.510
REMARK WARNING: 32 MAX_TORS EXCEEDED!!!
REMARK  42 active torsions:
REMARK  status: ('A' for Active; 'I' for Inactive)
REMARK    1  A    between atoms: CA_2  and  CB_3 
REMARK    2  A    between atoms: CA_2  and  C_11 
REMARK    3  A    between atoms: CB_3  and  CG_4 
REMARK       I    between atoms: C_11  and  N_13 
REMARK    4  A    between atoms: N_13  and  CA_14 
REMARK    5  A    between atoms: CA_14  and  CB_15 
REMARK    6  A    between atoms: CA_14  and  C_19 
REMARK    7  A    between atoms: CB_15  and  CG_16 
REMARK       I    between atoms: C_19  and  N_21 
REMARK    8  A    between atoms: CA_22  and  C_26 
REMARK       I    between atoms: C_26  and  N_28 
REMARK    9  A    between atoms: N_28  and  CA_29 
REMARK   10  A    between atoms: CA_29  and  C_35 
REMARK   11  A    between atoms: CA_29  and  CB_30 
REMARK   12  A    between atoms: CB_30  and  CG_31 
REMARK   13  A    between atoms: CG_31  and  CD_32 
REMARK       I    between atoms: C_35  and  N_37 
REMARK   14  A    between atoms: N_37  and  CA_38 
REMARK   15  A    between atoms: CA_38  and  CB_39 
REMARK   16  A    between atoms: CA_38  and  C_47 
REMARK   17  A    between atoms: CB_39  and  CG_40 
REMARK       I    between atoms: C_47  and  N_49 
REMARK   18  A    between atoms: N_49  and  CA_50 
REMARK   19  A    between atoms: CA_50  and  CB_51 
REMARK   20  A    between atoms: CA_50  and  C_58 
REMARK   21  A    between atoms: CB_51  and  CG_52 
REMARK   22  A    between atoms: CG_52  and  CD_53 
REMARK   23  A    between atoms: CD_53  and  NE_54 
REMARK       I    between atoms: C_58  and  N_60 
REMARK   24  A    between atoms: N_60  and  CA_61 
REMARK   25  A    between atoms: CA_61  and  C_66 
REMARK   26  A    between atoms: CA_61  and  CB_62 
REMARK   27  A    between atoms: CB_62  and  CG_63 
REMARK       I    between atoms: C_66  and  N_68 
REMARK   28  A    between atoms: N_68  and  CA_69 
REMARK   29  A    between atoms: CA_69  and  CB_70 
REMARK   30  A    between atoms: CA_69  and  C_77 
REMARK   31  A    between atoms: CB_70  and  CG_71 
REMARK       I    between atoms: C_77  and  N_79 
REMARK   32  A    between atoms: N_79  and  CA_80 
REMARK   33  A    between atoms: CA_80  and  CB_81 
REMARK   34  A    between atoms: CA_80  and  C_91 
REMARK   35  A    between atoms: CB_81  and  CG_82 
REMARK       I    between atoms: C_91  and  N_93 
REMARK   36  A    between atoms: N_93  and  CA_94 
REMARK   37  A    between atoms: CA_94  and  C_95 
REMARK       I    between atoms: C_95  and  N_97 
REMARK   38  A    between atoms: N_97  and  CA_98 
REMARK   39  A    between atoms: CA_98  and  C_101 
REMARK   40  A    between atoms: CA_98  and  CB_99 
REMARK       I    between atoms: C_101  and  N_103 
REMARK   41  A    between atoms: N_103  and  CA_104 
REMARK   42  A    between atoms: CA_104  and  C_105 
ROOT
ATOM      1  CA  ARG     6       8.389 -19.298   5.594  1.00  0.00     0.186 C 
ENDROOT
BRANCH   1   2
ATOM      2  N   ARG     6       9.335 -18.492   6.400  1.00  0.00    -0.229 NA
ATOM      3  C   TYR     5       9.175 -17.176   6.591  1.00  0.00     0.275 C 
ATOM      4  O   TYR     5       8.215 -16.556   6.133  1.00  0.00    -0.268 OA
BRANCH   3   5
ATOM      5  CA  TYR     5      10.188 -16.473   7.510  1.00  0.00     0.191 C 
BRANCH   5   6
ATOM      6  N   TYR     5      10.933 -15.375   6.841  1.00  0.00    -0.228 NA
ATOM      7  C   GLU     4      12.187 -15.029   7.174  1.00  0.00     0.274 C 
ATOM      8  O   GLU     4      12.866 -15.681   7.958  1.00  0.00    -0.268 OA
BRANCH   7   9
ATOM      9  CA  GLU     4      12.855 -13.963   6.283  1.00  0.00     0.187 C 
BRANCH   9  10
ATOM     10  CB  GLU     4      13.739 -14.645   5.226  1.00  0.00     0.045 C 
BRANCH  10  11
ATOM     11  CG  GLU     4      13.008 -15.537   4.197  1.00  0.00     0.100 C 
BRANCH  11  12
ATOM     12  CD  GLU     4      13.159 -17.037   4.446  1.00  0.00     0.185 C 
ATOM     13  OE1 GLU     4      14.310 -17.464   4.725  1.00  0.00    -0.647 OA
ATOM     14  OE2 GLU     4      12.308 -17.781   3.918  1.00  0.00    -0.647 OA
ENDBRANCH  11  12
ENDBRANCH  10  11
ENDBRANCH   9  10
BRANCH   9  15
ATOM     15  N   GLU     4      13.683 -13.005   7.041  1.00  0.00    -0.229 NA
ATOM     16  C   PRO     3      14.135 -11.820   6.647  1.00  0.00     0.272 C 
ATOM     17  O   PRO     3      13.628 -11.174   5.728  1.00  0.00    -0.269 OA
BRANCH  16  18
ATOM     18  CA  PRO     3      14.976 -11.066   7.679  1.00  0.00     0.165 C 
ATOM     19  N   PRO     3      14.228 -10.588   8.861  1.00  0.00    -0.312 N 
ATOM     20  CD  PRO     3      15.047 -10.785  10.084  1.00  0.00     0.105 C 
ATOM     21  C   ASP     2      13.054  -9.934   8.793  1.00  0.00     0.257 C 
ATOM     22  CG  PRO     3      16.425 -11.209   9.553  1.00  0.00     0.027 C 
ATOM     23  CB  PRO     3      16.106 -11.924   8.243  1.00  0.00     0.034 C 
ATOM     24  O   ASP     2      12.637  -9.506   7.706  1.00  0.00    -0.270 OA
BRANCH  21  25
ATOM     25  CA  ASP     2      12.402  -9.404  10.090  1.00  0.00     0.195 C 
BRANCH  25  26
ATOM     26  CB  ASP     2      11.641 -10.443  10.953  1.00  0.00     0.132 C 
BRANCH  26  27
ATOM     27  CG  ASP     2      12.128 -10.391  12.413  1.00  0.00     0.188 C 
ATOM     28  OD2 ASP     2      12.373 -11.505  12.943  1.00  0.00    -0.647 OA
ATOM     29  OD1 ASP     2      11.717  -9.431  13.111  1.00  0.00    -0.647 OA
ENDBRANCH  26  27
ENDBRANCH  25  26
BRANCH  25  30
ATOM     30  N   ASP     2      11.364  -8.396   9.817  1.00  0.00    -0.228 NA
ATOM     31  C   TYR     1      11.287  -7.190  10.330  1.00  0.00     0.289 C 
ATOM     32  O   TYR     1      12.121  -6.606  11.030  1.00  0.00    -0.268 OA
BRANCH  31  33
ATOM     33  CA  TYR     1       9.966  -6.508   9.990  1.00  0.00     0.385 C 
ATOM     34  N   TYR     1      10.154  -5.761   8.735  1.00  0.00     0.626 N 
BRANCH  33  35
ATOM     35  CB  TYR     1       8.907  -7.601   9.866  1.00  0.00     0.075 C 
BRANCH  35  36
ATOM     36  CG  TYR     1       7.472  -7.054   9.886  1.00  0.00    -0.019 A 
ATOM     37  CD2 TYR     1       6.690  -7.034   8.741  1.00  0.00    -0.002 A 
ATOM     38  CE2 TYR     1       5.356  -6.662   8.814  1.00  0.00     0.027 A 
ATOM     39  CZ  TYR     1       4.817  -6.303  10.048  1.00  0.00     0.131 A 
ATOM     40  CE1 TYR     1       5.613  -6.285  11.179  1.00  0.00     0.027 A 
ATOM     41  OH  TYR     1       3.488  -6.120  10.180  1.00  0.00    -0.190 OA
ATOM     42  CD1 TYR     1       6.947  -6.657  11.106  1.00  0.00    -0.002 A 
ENDBRANCH  35  36
ENDBRANCH  33  35
ENDBRANCH  31  33
ENDBRANCH  25  30
ENDBRANCH  21  25
ENDBRANCH  16  18
ENDBRANCH   9  15
ENDBRANCH   7   9
ENDBRANCH   5   6
BRANCH   5  43
ATOM     43  CB  TYR     5       9.503 -15.947   8.782  1.00  0.00     0.060 C 
BRANCH  43  44
ATOM     44  CG  TYR     5       9.171 -17.074   9.774  1.00  0.00    -0.020 A 
ATOM     45  CD2 TYR     5      10.185 -17.811  10.372  1.00  0.00    -0.002 A 
ATOM     46  CE2 TYR     5       9.875 -18.824  11.274  1.00  0.00     0.027 A 
ATOM     47  CZ  TYR     5       8.551 -19.100  11.579  1.00  0.00     0.131 A 
ATOM     48  CE1 TYR     5       7.531 -18.355  10.999  1.00  0.00     0.027 A 
ATOM     49  OH  TYR     5       8.237 -20.169  12.343  1.00  0.00    -0.190 OA
ATOM     50  CD1 TYR     5       7.844 -17.346  10.088  1.00  0.00    -0.002 A 
ENDBRANCH  43  44
ENDBRANCH   5  43
ENDBRANCH   3   5
ENDBRANCH   1   2
BRANCH   1  51
ATOM     51  CB  ARG     6       9.079 -20.096   4.491  1.00  0.00     0.036 C 
BRANCH  51  52
ATOM     52  CG  ARG     6       8.166 -20.422   3.306  1.00  0.00     0.029 C 
BRANCH  52  53
ATOM     53  CD  ARG     6       7.677 -19.138   2.643  1.00  0.00     0.145 C 
BRANCH  53  54
ATOM     54  NE  ARG     6       8.674 -18.624   1.690  1.00  0.00    -0.083 NA
ATOM     55  CZ  ARG     6       9.345 -17.462   1.811  1.00  0.00     0.782 C 
ATOM     56  NH2 ARG     6      10.167 -17.050   0.844  1.00  0.00     0.063 N 
ATOM     57  NH1 ARG     6       9.130 -16.670   2.856  1.00  0.00     0.063 N 
ENDBRANCH  53  54
ENDBRANCH  52  53
ENDBRANCH  51  52
ENDBRANCH   1  51
BRANCH   1  58
ATOM     58  C   ARG     6       7.607 -20.308   6.443  1.00  0.00     0.274 C 
ATOM     59  N   ASN     7       6.440 -19.882   6.918  1.00  0.00    -0.228 NA
ATOM     60  O   ARG     6       8.086 -21.426   6.640  1.00  0.00    -0.268 OA
BRANCH  59  61
ATOM     61  CA  ASN     7       5.504 -20.741   7.671  1.00  0.00     0.196 C 
BRANCH  61  62
ATOM     62  C   ASN     7       4.261 -21.097   6.833  1.00  0.00     0.275 C 
ATOM     63  N   PHE     8       3.137 -20.414   7.094  1.00  0.00    -0.228 NA
ATOM     64  O   ASN     7       4.450 -21.660   5.772  1.00  0.00    -0.268 OA
BRANCH  63  65
ATOM     65  CA  PHE     8       1.866 -20.551   6.341  1.00  0.00     0.191 C 
BRANCH  65  66
ATOM     66  CB  PHE     8       1.076 -21.722   6.941  1.00  0.00     0.060 C 
BRANCH  66  67
ATOM     67  CG  PHE     8       0.936 -22.940   6.008  1.00  0.00    -0.020 A 
ATOM     68  CD1 PHE     8       0.913 -22.760   4.632  1.00  0.00    -0.004 A 
ATOM     69  CE1 PHE     8       0.685 -23.850   3.793  1.00  0.00    -0.000 A 
ATOM     70  CZ  PHE     8       0.497 -25.110   4.338  1.00  0.00    -0.000 A 
ATOM     71  CE2 PHE     8       0.533 -25.295   5.716  1.00  0.00    -0.000 A 
ATOM     72  CD2 PHE     8       0.761 -24.205   6.555  1.00  0.00    -0.004 A 
ENDBRANCH  66  67
ENDBRANCH  65  66
BRANCH  65  73
ATOM     73  C   PHE     8       1.012 -19.266   6.262  1.00  0.00     0.275 C 
ATOM     74  N   TRP     9      -0.276 -19.389   6.587  1.00  0.00    -0.228 NA
ATOM     75  O   PHE     8       1.435 -18.257   5.692  1.00  0.00    -0.268 OA
BRANCH  74  76
ATOM     76  CA  TRP     9      -1.181 -18.216   6.674  1.00  0.00     0.191 C 
BRANCH  76  77
ATOM     77  CB  TRP     9      -2.616 -18.673   6.362  1.00  0.00     0.062 C 
BRANCH  77  78
ATOM     78  CG  TRP     9      -2.867 -20.142   6.699  1.00  0.00     0.001 A 
ATOM     79  CD1 TRP     9      -2.764 -20.695   7.904  1.00  0.00     0.095 A 
ATOM     80  NE1 TRP     9      -2.758 -22.017   7.792  1.00  0.00    -0.244 NA
ATOM     81  CE2 TRP     9      -2.876 -22.354   6.516  1.00  0.00     0.081 A 
ATOM     82  CD2 TRP     9      -2.935 -21.182   5.778  1.00  0.00     0.015 A 
ATOM     83  CZ2 TRP     9      -2.836 -23.580   5.853  1.00  0.00     0.019 A 
ATOM     84  CE3 TRP     9      -2.939 -21.215   4.391  1.00  0.00     0.001 A 
ATOM     85  CZ3 TRP     9      -2.886 -22.437   3.728  1.00  0.00     0.000 A 
ATOM     86  CH2 TRP     9      -2.853 -23.618   4.467  1.00  0.00     0.002 A 
ENDBRANCH  77  78
ENDBRANCH  76  77
BRANCH  76  87
ATOM     87  C   TRP     9      -1.107 -17.447   8.013  1.00  0.00     0.275 C 
ATOM     88  O   TRP     9      -0.487 -17.903   8.968  1.00  0.00    -0.268 OA
ATOM     89  N   GLY    10      -1.663 -16.236   8.027  1.00  0.00    -0.226 NA
BRANCH  89  90
ATOM     90  CA  GLY    10      -1.657 -15.325   9.204  1.00  0.00     0.218 C 
BRANCH  90  91
ATOM     91  C   GLY    10      -2.918 -14.471   9.412  1.00  0.00     0.277 C 
ATOM     92  N   CYS    11      -4.069 -15.139   9.340  1.00  0.00    -0.228 NA
ATOM     93  O   GLY    10      -2.843 -13.248   9.460  1.00  0.00    -0.268 OA
BRANCH  92  94
ATOM     94  CA  CYS    11      -5.427 -14.578   9.522  1.00  0.00     0.198 C 
BRANCH  94  95
ATOM     95  C   CYS    11      -5.909 -14.944  10.940  1.00  0.00     0.275 C 
ATOM     96  O   CYS    11      -6.983 -14.504  11.335  1.00  0.00    -0.268 OA
ATOM     97  N   GLY    12      -5.026 -15.555  11.715  1.00  0.00    -0.225 NA
BRANCH  97  98
ATOM     98  CA  GLY    12      -5.318 -15.958  13.100  1.00  0.00     0.226 C 
BRANCH  98  99
ATOM     99  C   GLY    12      -5.215 -17.499  13.180  1.00  0.00     0.211 C 
ATOM    100  O1  GLY    12      -5.243 -18.124  12.089  1.00  0.00    -0.646 OA
ATOM    101  O2  GLY    12      -5.075 -18.013  14.305  1.00  0.00    -0.646 OA
ENDBRANCH  98  99
ENDBRANCH  97  98
ENDBRANCH  94  95
BRANCH  94 102
ATOM    102  CB  CYS    11      -6.407 -15.255   8.566  1.00  0.00     0.103 C 
ATOM    103  SG  CYS    11      -6.608 -17.067   8.764  1.00  0.00    -0.080 SA
ENDBRANCH  94 102
ENDBRANCH  92  94
ENDBRANCH  90  91
ENDBRANCH  89  90
ENDBRANCH  76  87
ENDBRANCH  74  76
ENDBRANCH  65  73
ENDBRANCH  63  65
ENDBRANCH  61  62
BRANCH  61 104
ATOM    104  CB  ASN     7       5.098 -20.091   9.000  1.00  0.00     0.126 C 
BRANCH 104 105
ATOM    105  CG  ASN     7       4.976 -21.065  10.187  1.00  0.00     0.276 C 
ATOM    106  ND2 ASN     7       3.847 -21.019  10.856  1.00  0.00    -0.107 N 
ATOM    107  OD1 ASN     7       5.889 -21.748  10.633  1.00  0.00    -0.269 OA
ENDBRANCH 104 105
ENDBRANCH  61 104
ENDBRANCH  59  61
ENDBRANCH   1  58
TORSDOF 42
ENDMDL
MODEL 9
REMARK VINA RESULT:      -6.0     11.570     16.820
REMARK WARNING: 32 MAX_TORS EXCEEDED!!!
REMARK  42 active torsions:
REMARK  status: ('A' for Active; 'I' for Inactive)
REMARK    1  A    between atoms: CA_2  and  CB_3 
REMARK    2  A    between atoms: CA_2  and  C_11 
REMARK    3  A    between atoms: CB_3  and  CG_4 
REMARK       I    between atoms: C_11  and  N_13 
REMARK    4  A    between atoms: N_13  and  CA_14 
REMARK    5  A    between atoms: CA_14  and  CB_15 
REMARK    6  A    between atoms: CA_14  and  C_19 
REMARK    7  A    between atoms: CB_15  and  CG_16 
REMARK       I    between atoms: C_19  and  N_21 
REMARK    8  A    between atoms: CA_22  and  C_26 
REMARK       I    between atoms: C_26  and  N_28 
REMARK    9  A    between atoms: N_28  and  CA_29 
REMARK   10  A    between atoms: CA_29  and  C_35 
REMARK   11  A    between atoms: CA_29  and  CB_30 
REMARK   12  A    between atoms: CB_30  and  CG_31 
REMARK   13  A    between atoms: CG_31  and  CD_32 
REMARK       I    between atoms: C_35  and  N_37 
REMARK   14  A    between atoms: N_37  and  CA_38 
REMARK   15  A    between atoms: CA_38  and  CB_39 
REMARK   16  A    between atoms: CA_38  and  C_47 
REMARK   17  A    between atoms: CB_39  and  CG_40 
REMARK       I    between atoms: C_47  and  N_49 
REMARK   18  A    between atoms: N_49  and  CA_50 
REMARK   19  A    between atoms: CA_50  and  CB_51 
REMARK   20  A    between atoms: CA_50  and  C_58 
REMARK   21  A    between atoms: CB_51  and  CG_52 
REMARK   22  A    between atoms: CG_52  and  CD_53 
REMARK   23  A    between atoms: CD_53  and  NE_54 
REMARK       I    between atoms: C_58  and  N_60 
REMARK   24  A    between atoms: N_60  and  CA_61 
REMARK   25  A    between atoms: CA_61  and  C_66 
REMARK   26  A    between atoms: CA_61  and  CB_62 
REMARK   27  A    between atoms: CB_62  and  CG_63 
REMARK       I    between atoms: C_66  and  N_68 
REMARK   28  A    between atoms: N_68  and  CA_69 
REMARK   29  A    between atoms: CA_69  and  CB_70 
REMARK   30  A    between atoms: CA_69  and  C_77 
REMARK   31  A    between atoms: CB_70  and  CG_71 
REMARK       I    between atoms: C_77  and  N_79 
REMARK   32  A    between atoms: N_79  and  CA_80 
REMARK   33  A    between atoms: CA_80  and  CB_81 
REMARK   34  A    between atoms: CA_80  and  C_91 
REMARK   35  A    between atoms: CB_81  and  CG_82 
REMARK       I    between atoms: C_91  and  N_93 
REMARK   36  A    between atoms: N_93  and  CA_94 
REMARK   37  A    between atoms: CA_94  and  C_95 
REMARK       I    between atoms: C_95  and  N_97 
REMARK   38  A    between atoms: N_97  and  CA_98 
REMARK   39  A    between atoms: CA_98  and  C_101 
REMARK   40  A    between atoms: CA_98  and  CB_99 
REMARK       I    between atoms: C_101  and  N_103 
REMARK   41  A    between atoms: N_103  and  CA_104 
REMARK   42  A    between atoms: CA_104  and  C_105 
ROOT
ATOM      1  CA  ARG     6      -7.781 -20.480   4.523  1.00  0.00     0.186 C 
ENDROOT
BRANCH   1   2
ATOM      2  N   ARG     6      -6.622 -20.480   3.599  1.00  0.00    -0.229 NA
ATOM      3  C   TYR     5      -5.654 -21.404   3.661  1.00  0.00     0.275 C 
ATOM      4  O   TYR     5      -5.680 -22.332   4.471  1.00  0.00    -0.268 OA
BRANCH   3   5
ATOM      5  CA  TYR     5      -4.548 -21.332   2.596  1.00  0.00     0.191 C 
BRANCH   5   6
ATOM      6  N   TYR     5      -3.277 -21.978   3.017  1.00  0.00    -0.228 NA
ATOM      7  C   GLU     4      -2.194 -21.284   3.404  1.00  0.00     0.274 C 
ATOM      8  O   GLU     4      -2.213 -20.072   3.575  1.00  0.00    -0.268 OA
BRANCH   7   9
ATOM      9  CA  GLU     4      -1.013 -22.118   3.941  1.00  0.00     0.187 C 
BRANCH   9  10
ATOM     10  CB  GLU     4      -1.380 -23.610   3.930  1.00  0.00     0.045 C 
BRANCH  10  11
ATOM     11  CG  GLU     4      -0.198 -24.605   3.926  1.00  0.00     0.100 C 
BRANCH  11  12
ATOM     12  CD  GLU     4       0.105 -25.228   5.288  1.00  0.00     0.185 C 
ATOM     13  OE1 GLU     4      -0.872 -25.465   6.045  1.00  0.00    -0.647 OA
ATOM     14  OE2 GLU     4       1.246 -25.032   5.752  1.00  0.00    -0.647 OA
ENDBRANCH  11  12
ENDBRANCH  10  11
ENDBRANCH   9  10
BRANCH   9  15
ATOM     15  N   GLU     4      -0.609 -21.742   5.310  1.00  0.00    -0.229 NA
ATOM     16  C   PRO     3       0.619 -21.588   5.789  1.00  0.00     0.272 C 
ATOM     17  O   PRO     3       1.601 -21.372   5.077  1.00  0.00    -0.269 OA
BRANCH  16  18
ATOM     18  CA  PRO     3       0.700 -21.191   7.265  1.00  0.00     0.165 C 
ATOM     19  N   PRO     3      -0.292 -20.181   7.692  1.00  0.00    -0.312 N 
ATOM     20  CD  PRO     3      -0.816 -20.534   9.036  1.00  0.00     0.105 C 
ATOM     21  C   ASP     2      -0.544 -19.044   7.018  1.00  0.00     0.257 C 
ATOM     22  CG  PRO     3       0.075 -21.697   9.498  1.00  0.00     0.027 C 
ATOM     23  CB  PRO     3       0.482 -22.382   8.196  1.00  0.00     0.034 C 
ATOM     24  O   ASP     2       0.207 -18.680   6.101  1.00  0.00    -0.270 OA
BRANCH  21  25
ATOM     25  CA  ASP     2      -1.541 -18.019   7.604  1.00  0.00     0.195 C 
BRANCH  25  26
ATOM     26  CB  ASP     2      -1.072 -17.243   8.862  1.00  0.00     0.132 C 
BRANCH  26  27
ATOM     27  CG  ASP     2      -1.420 -15.748   8.733  1.00  0.00     0.188 C 
ATOM     28  OD2 ASP     2      -1.132 -15.037   9.729  1.00  0.00    -0.647 OA
ATOM     29  OD1 ASP     2      -2.403 -15.458   8.007  1.00  0.00    -0.647 OA
ENDBRANCH  26  27
ENDBRANCH  25  26
BRANCH  25  30
ATOM     30  N   ASP     2      -2.784 -18.658   8.069  1.00  0.00    -0.228 NA
ATOM     31  C   TYR     1      -3.851 -18.914   7.350  1.00  0.00     0.289 C 
ATOM     32  O   TYR     1      -3.990 -18.803   6.127  1.00  0.00    -0.268 OA
BRANCH  31  33
ATOM     33  CA  TYR     1      -5.022 -19.380   8.210  1.00  0.00     0.385 C 
ATOM     34  N   TYR     1      -6.118 -18.411   8.044  1.00  0.00     0.626 N 
BRANCH  33  35
ATOM     35  CB  TYR     1      -5.404 -20.781   7.739  1.00  0.00     0.075 C 
BRANCH  35  36
ATOM     36  CG  TYR     1      -4.497 -21.878   8.318  1.00  0.00    -0.019 A 
ATOM     37  CD2 TYR     1      -4.154 -21.897   9.661  1.00  0.00    -0.002 A 
ATOM     38  CE2 TYR     1      -3.448 -22.969  10.186  1.00  0.00     0.027 A 
ATOM     39  CZ  TYR     1      -3.085 -24.021   9.345  1.00  0.00     0.131 A 
ATOM     40  CE1 TYR     1      -3.395 -23.976   7.997  1.00  0.00     0.027 A 
ATOM     41  OH  TYR     1      -2.567 -25.154   9.861  1.00  0.00    -0.190 OA
ATOM     42  CD1 TYR     1      -4.100 -22.903   7.473  1.00  0.00    -0.002 A 
ENDBRANCH  35  36
ENDBRANCH  33  35
ENDBRANCH  31  33
ENDBRANCH  25  30
ENDBRANCH  21  25
ENDBRANCH  16  18
ENDBRANCH   9  15
ENDBRANCH   7   9
ENDBRANCH   5   6
BRANCH   5  43
ATOM     43  CB  TYR     5      -5.028 -21.930   1.263  1.00  0.00     0.060 C 
BRANCH  43  44
ATOM     44  CG  TYR     5      -4.324 -23.257   0.932  1.00  0.00    -0.020 A 
ATOM     45  CD2 TYR     5      -4.591 -24.403   1.669  1.00  0.00    -0.002 A 
ATOM     46  CE2 TYR     5      -3.954 -25.600   1.357  1.00  0.00     0.027 A 
ATOM     47  CZ  TYR     5      -3.050 -25.651   0.307  1.00  0.00     0.131 A 
ATOM     48  CE1 TYR     5      -2.791 -24.513  -0.447  1.00  0.00     0.027 A 
ATOM     49  OH  TYR     5      -2.326 -26.770   0.087  1.00  0.00    -0.190 OA
ATOM     50  CD1 TYR     5      -3.423 -23.312  -0.126  1.00  0.00    -0.002 A 
ENDBRANCH  43  44
ENDBRANCH   5  43
ENDBRANCH   3   5
ENDBRANCH   1   2
BRANCH   1  51
ATOM     51  CB  ARG     6      -8.020 -19.123   5.176  1.00  0.00     0.036 C 
BRANCH  51  52
ATOM     52  CG  ARG     6      -7.168 -17.997   4.584  1.00  0.00     0.029 C 
BRANCH  52  53
ATOM     53  CD  ARG     6      -7.955 -16.690   4.562  1.00  0.00     0.145 C 
BRANCH  53  54
ATOM     54  NE  ARG     6      -7.064 -15.534   4.754  1.00  0.00    -0.083 NA
ATOM     55  CZ  ARG     6      -6.768 -14.963   5.938  1.00  0.00     0.782 C 
ATOM     56  NH2 ARG     6      -6.012 -13.864   5.990  1.00  0.00     0.063 N 
ATOM     57  NH1 ARG     6      -7.296 -15.436   7.061  1.00  0.00     0.063 N 
ENDBRANCH  53  54
ENDBRANCH  52  53
ENDBRANCH  51  52
ENDBRANCH   1  51
BRANCH   1  58
ATOM     58  C   ARG     6      -9.089 -20.867   3.822  1.00  0.00     0.274 C 
ATOM     59  N   ASN     7      -9.187 -22.138   3.443  1.00  0.00    -0.228 NA
ATOM     60  O   ARG     6      -9.955 -20.008   3.648  1.00  0.00    -0.268 OA
BRANCH  59  61
ATOM     61  CA  ASN     7     -10.406 -22.718   2.843  1.00  0.00     0.196 C 
BRANCH  61  62
ATOM     62  C   ASN     7     -10.672 -24.144   3.365  1.00  0.00     0.275 C 
ATOM     63  N   PHE     8      -9.651 -24.770   3.967  1.00  0.00    -0.228 NA
ATOM     64  O   ASN     7     -11.832 -24.457   3.554  1.00  0.00    -0.268 OA
BRANCH  63  65
ATOM     65  CA  PHE     8      -9.734 -26.105   4.608  1.00  0.00     0.191 C 
BRANCH  65  66
ATOM     66  CB  PHE     8      -8.678 -27.014   3.965  1.00  0.00     0.060 C 
BRANCH  66  67
ATOM     67  CG  PHE     8      -7.290 -26.946   4.628  1.00  0.00    -0.020 A 
ATOM     68  CD1 PHE     8      -6.861 -27.981   5.447  1.00  0.00    -0.004 A 
ATOM     69  CE1 PHE     8      -5.649 -27.872   6.127  1.00  0.00    -0.000 A 
ATOM     70  CZ  PHE     8      -4.872 -26.736   5.970  1.00  0.00    -0.000 A 
ATOM     71  CE2 PHE     8      -5.293 -25.703   5.139  1.00  0.00    -0.000 A 
ATOM     72  CD2 PHE     8      -6.505 -25.812   4.459  1.00  0.00    -0.004 A 
ENDBRANCH  66  67
ENDBRANCH  65  66
BRANCH  65  73
ATOM     73  C   PHE     8      -9.618 -26.098   6.149  1.00  0.00     0.275 C 
ATOM     74  N   TRP     9      -8.988 -25.055   6.692  1.00  0.00    -0.228 NA
ATOM     75  O   PHE     8      -9.865 -27.111   6.808  1.00  0.00    -0.268 OA
BRANCH  74  76
ATOM     76  CA  TRP     9      -8.913 -24.857   8.161  1.00  0.00     0.191 C 
BRANCH  76  77
ATOM     77  CB  TRP     9      -7.550 -24.238   8.509  1.00  0.00     0.062 C 
BRANCH  77  78
ATOM     78  CG  TRP     9      -7.076 -24.580   9.921  1.00  0.00     0.001 A 
ATOM     79  CD1 TRP     9      -7.059 -23.751  10.961  1.00  0.00     0.095 A 
ATOM     80  NE1 TRP     9      -6.324 -24.271  11.936  1.00  0.00    -0.244 NA
ATOM     81  CE2 TRP     9      -5.864 -25.455  11.561  1.00  0.00     0.081 A 
ATOM     82  CD2 TRP     9      -6.310 -25.688  10.270  1.00  0.00     0.015 A 
ATOM     83  CZ2 TRP     9      -4.991 -26.363  12.159  1.00  0.00     0.019 A 
ATOM     84  CE3 TRP     9      -5.887 -26.802   9.562  1.00  0.00     0.001 A 
ATOM     85  CZ3 TRP     9      -5.005 -27.702  10.151  1.00  0.00     0.000 A 
ATOM     86  CH2 TRP     9      -4.575 -27.486  11.459  1.00  0.00     0.002 A 
ENDBRANCH  77  78
ENDBRANCH  76  77
BRANCH  76  87
ATOM     87  C   TRP     9     -10.080 -24.039   8.759  1.00  0.00     0.275 C 
ATOM     88  O   TRP     9     -10.556 -24.328   9.853  1.00  0.00    -0.268 OA
ATOM     89  N   GLY    10     -10.457 -22.963   8.070  1.00  0.00    -0.226 NA
BRANCH  89  90
ATOM     90  CA  GLY    10     -11.530 -22.025   8.502  1.00  0.00     0.218 C 
BRANCH  90  91
ATOM     91  C   GLY    10     -11.259 -20.528   8.277  1.00  0.00     0.277 C 
ATOM     92  N   CYS    11     -11.615 -19.734   9.286  1.00  0.00    -0.228 NA
ATOM     93  O   GLY    10     -10.906 -20.117   7.178  1.00  0.00    -0.268 OA
BRANCH  92  94
ATOM     94  CA  CYS    11     -11.451 -18.265   9.352  1.00  0.00     0.198 C 
BRANCH  94  95
ATOM     95  C   CYS    11      -9.995 -17.964   9.757  1.00  0.00     0.275 C 
ATOM     96  O   CYS    11      -9.276 -17.345   8.981  1.00  0.00    -0.268 OA
ATOM     97  N   GLY    12      -9.557 -18.575  10.849  1.00  0.00    -0.225 NA
BRANCH  97  98
ATOM     98  CA  GLY    12      -8.189 -18.410  11.365  1.00  0.00     0.226 C 
BRANCH  98  99
ATOM     99  C   GLY    12      -7.408 -19.712  11.071  1.00  0.00     0.211 C 
ATOM    100  O1  GLY    12      -6.285 -19.833  11.623  1.00  0.00    -0.646 OA
ATOM    101  O2  GLY    12      -7.952 -20.563  10.344  1.00  0.00    -0.646 OA
ENDBRANCH  98  99
ENDBRANCH  97  98
ENDBRANCH  94  95
BRANCH  94 102
ATOM    102  CB  CYS    11     -12.317 -17.688  10.469  1.00  0.00     0.103 C 
ATOM    103  SG  CYS    11     -12.664 -15.890  10.377  1.00  0.00    -0.080 SA
ENDBRANCH  94 102
ENDBRANCH  92  94
ENDBRANCH  90  91
ENDBRANCH  89  90
ENDBRANCH  76  87
ENDBRANCH  74  76
ENDBRANCH  65  73
ENDBRANCH  63  65
ENDBRANCH  61  62
BRANCH  61 104
ATOM    104  CB  ASN     7     -10.334 -22.703   1.311  1.00  0.00     0.126 C 
BRANCH 104 105
ATOM    105  CG  ASN     7      -8.908 -22.684   0.730  1.00  0.00     0.276 C 
ATOM    106  ND2 ASN     7      -8.267 -23.830   0.737  1.00  0.00    -0.107 N 
ATOM    107  OD1 ASN     7      -8.291 -21.674   0.416  1.00  0.00    -0.269 OA
ENDBRANCH 104 105
ENDBRANCH  61 104
ENDBRANCH  59  61
ENDBRANCH   1  58
TORSDOF 42
ENDMDL
