MODEL 1
REMARK VINA RESULT:      -4.7      0.000      0.000
REMARK WARNING: 32 MAX_TORS EXCEEDED!!!
REMARK  33 active torsions:
REMARK  status: ('A' for Active; 'I' for Inactive)
REMARK    1  A    between atoms: CA_2  and  C_8 
REMARK    2  A    between atoms: CA_2  and  CB_3 
REMARK    3  A    between atoms: CB_3  and  CG_4 
REMARK    4  A    between atoms: CG_4  and  CD_5 
REMARK       I    between atoms: C_8  and  N_10 
REMARK    5  A    between atoms: N_10  and  CA_11 
REMARK    6  A    between atoms: CA_11  and  C_12 
REMARK       I    between atoms: C_12  and  N_14 
REMARK    7  A    between atoms: N_14  and  CA_15 
REMARK    8  A    between atoms: CA_15  and  C_20 
REMARK    9  A    between atoms: CA_15  and  CB_16 
REMARK   10  A    between atoms: CB_16  and  CG_17 
REMARK       I    between atoms: C_20  and  N_22 
REMARK   11  A    between atoms: N_22  and  CA_23 
REMARK   12  A    between atoms: CA_23  and  CB_24 
REMARK   13  A    between atoms: CA_23  and  C_28 
REMARK   14  A    between atoms: CB_24  and  CG_25 
REMARK       I    between atoms: C_28  and  N_30 
REMARK   15  A    between atoms: N_30  and  CA_31 
REMARK   16  A    between atoms: CA_31  and  CB_32 
REMARK   17  A    between atoms: CA_31  and  C_39 
REMARK   18  A    between atoms: CB_32  and  CG_33 
REMARK   19  A    between atoms: CG_33  and  CD_34 
REMARK   20  A    between atoms: CD_34  and  NE_35 
REMARK       I    between atoms: C_39  and  N_41 
REMARK   21  A    between atoms: CA_42  and  C_46 
REMARK       I    between atoms: C_46  and  N_48 
REMARK   22  A    between atoms: N_48  and  CA_49 
REMARK   23  A    between atoms: CA_49  and  C_52 
REMARK   24  A    between atoms: CA_49  and  CB_50 
REMARK       I    between atoms: C_52  and  N_54 
REMARK   25  A    between atoms: N_54  and  CA_55 
REMARK   26  A    between atoms: CA_55  and  C_56 
REMARK       I    between atoms: C_56  and  N_58 
REMARK   27  A    between atoms: N_58  and  CA_59 
REMARK   28  A    between atoms: CA_59  and  C_60 
REMARK       I    between atoms: C_60  and  N_62 
REMARK   29  A    between atoms: N_62  and  CA_63 
REMARK   30  A    between atoms: CA_63  and  CB_64 
REMARK   31  A    between atoms: CA_63  and  C_66 
REMARK       I    between atoms: C_66  and  N_68 
REMARK   32  A    between atoms: N_68  and  CA_69 
REMARK   33  A    between atoms: CA_69  and  C_70 
ROOT
ATOM      1  CA  ARG     5      -1.066 -21.514   8.026  1.00  0.00     0.185 C 
ENDROOT
BRANCH   1   2
ATOM      2  N   ARG     5      -0.649 -20.162   8.441  1.00  0.00    -0.229 NA
ATOM      3  C   ASN     4       0.545 -19.833   8.909  1.00  0.00     0.275 C 
ATOM      4  O   ASN     4       1.381 -20.642   9.298  1.00  0.00    -0.268 OA
BRANCH   3   5
ATOM      5  CA  ASN     4       0.661 -18.330   9.238  1.00  0.00     0.196 C 
BRANCH   5   6
ATOM      6  N   ASN     4       1.797 -17.723   8.512  1.00  0.00    -0.228 NA
ATOM      7  C   LEU     3       2.973 -17.467   9.081  1.00  0.00     0.274 C 
ATOM      8  O   LEU     3       3.256 -17.708  10.258  1.00  0.00    -0.268 OA
BRANCH   7   9
ATOM      9  CA  LEU     3       4.030 -16.888   8.142  1.00  0.00     0.186 C 
BRANCH   9  10
ATOM     10  N   LEU     3       5.333 -17.542   8.400  1.00  0.00    -0.229 NA
ATOM     11  C   GLY     2       6.475 -16.859   8.520  1.00  0.00     0.277 C 
ATOM     12  O   GLY     2       6.523 -15.640   8.583  1.00  0.00    -0.268 OA
BRANCH  11  13
ATOM     13  CA  GLY     2       7.747 -17.703   8.750  1.00  0.00     0.218 C 
BRANCH  13  14
ATOM     14  N   GLY     2       8.126 -18.692   7.713  1.00  0.00    -0.226 NA
ATOM     15  C   GLU     1       9.252 -18.575   6.999  1.00  0.00     0.289 C 
ATOM     16  O   GLU     1      10.096 -17.742   7.285  1.00  0.00    -0.268 OA
BRANCH  15  17
ATOM     17  CA  GLU     1       9.511 -19.579   5.845  1.00  0.00     0.381 C 
ATOM     18  N   GLU     1       8.740 -20.829   5.963  1.00  0.00     0.626 N 
BRANCH  17  19
ATOM     19  CB  GLU     1       9.229 -18.871   4.504  1.00  0.00     0.060 C 
BRANCH  19  20
ATOM     20  CG  GLU     1       8.008 -17.946   4.383  1.00  0.00     0.100 C 
BRANCH  20  21
ATOM     21  CD  GLU     1       7.974 -17.176   3.054  1.00  0.00     0.185 C 
ATOM     22  OE1 GLU     1       8.819 -16.282   2.867  1.00  0.00    -0.647 OA
ATOM     23  OE2 GLU     1       7.084 -17.455   2.231  1.00  0.00    -0.647 OA
ENDBRANCH  20  21
ENDBRANCH  19  20
ENDBRANCH  17  19
ENDBRANCH  15  17
ENDBRANCH  13  14
ENDBRANCH  11  13
ENDBRANCH   9  10
BRANCH   9  24
ATOM     24  CB  LEU     3       3.587 -17.127   6.693  1.00  0.00     0.034 C 
BRANCH  24  25
ATOM     25  CG  LEU     3       3.659 -15.871   5.806  1.00  0.00     0.002 C 
ATOM     26  CD1 LEU     3       3.735 -14.627   6.690  1.00  0.00     0.000 C 
ATOM     27  CD2 LEU     3       4.871 -15.923   4.869  1.00  0.00     0.000 C 
ENDBRANCH  24  25
ENDBRANCH   9  24
ENDBRANCH   7   9
ENDBRANCH   5   6
BRANCH   5  28
ATOM     28  CB  ASN     4      -0.640 -17.579   8.911  1.00  0.00     0.126 C 
BRANCH  28  29
ATOM     29  CG  ASN     4      -0.575 -16.068   9.207  1.00  0.00     0.276 C 
ATOM     30  ND2 ASN     4      -0.982 -15.691  10.390  1.00  0.00    -0.107 N 
ATOM     31  OD1 ASN     4      -0.115 -15.245   8.439  1.00  0.00    -0.269 OA
ENDBRANCH  28  29
ENDBRANCH   5  28
ENDBRANCH   3   5
ENDBRANCH   1   2
BRANCH   1  32
ATOM     32  CB  ARG     5      -1.357 -22.387   9.252  1.00  0.00     0.036 C 
BRANCH  32  33
ATOM     33  CG  ARG     5      -1.034 -23.868   9.048  1.00  0.00     0.029 C 
BRANCH  33  34
ATOM     34  CD  ARG     5       0.369 -24.158   9.571  1.00  0.00     0.145 C 
BRANCH  34  35
ATOM     35  NE  ARG     5       1.095 -25.121   8.708  1.00  0.00    -0.083 NA
ATOM     36  CZ  ARG     5       2.152 -24.815   7.941  1.00  0.00     0.782 C 
ATOM     37  NH2 ARG     5       2.905 -25.777   7.382  1.00  0.00     0.063 N 
ATOM     38  NH1 ARG     5       2.569 -23.565   7.807  1.00  0.00     0.063 N 
ENDBRANCH  34  35
ENDBRANCH  33  34
ENDBRANCH  32  33
ENDBRANCH   1  32
BRANCH   1  39
ATOM     39  C   ARG     5      -2.329 -21.418   7.150  1.00  0.00     0.256 C 
ATOM     40  O   ARG     5      -2.359 -21.983   6.053  1.00  0.00    -0.270 OA
ATOM     41  N   PRO     6      -3.391 -20.799   7.676  1.00  0.00    -0.312 N 
ATOM     42  CA  PRO     6      -4.669 -20.588   6.960  1.00  0.00     0.165 C 
ATOM     43  CD  PRO     6      -3.524 -20.372   9.086  1.00  0.00     0.105 C 
ATOM     44  CB  PRO     6      -5.524 -19.759   7.920  1.00  0.00     0.034 C 
ATOM     45  CG  PRO     6      -5.031 -20.206   9.289  1.00  0.00     0.027 C 
BRANCH  42  46
ATOM     46  C   PRO     6      -4.453 -19.842   5.633  1.00  0.00     0.272 C 
ATOM     47  N   SER     7      -4.928 -20.362   4.509  1.00  0.00    -0.226 NA
ATOM     48  O   PRO     6      -3.753 -18.826   5.602  1.00  0.00    -0.269 OA
BRANCH  47  49
ATOM     49  CA  SER     7      -5.669 -21.638   4.365  1.00  0.00     0.219 C 
BRANCH  49  50
ATOM     50  C   SER     7      -5.058 -22.540   3.278  1.00  0.00     0.277 C 
ATOM     51  O   SER     7      -4.483 -22.025   2.325  1.00  0.00    -0.268 OA
ATOM     52  N   GLY     8      -4.990 -23.831   3.570  1.00  0.00    -0.226 NA
BRANCH  52  53
ATOM     53  CA  GLY     8      -4.623 -24.851   2.552  1.00  0.00     0.218 C 
BRANCH  53  54
ATOM     54  C   GLY     8      -3.765 -26.048   2.998  1.00  0.00     0.277 C 
ATOM     55  N   GLY     9      -2.576 -25.775   3.555  1.00  0.00    -0.226 NA
ATOM     56  O   GLY     8      -4.191 -27.185   2.880  1.00  0.00    -0.268 OA
BRANCH  55  57
ATOM     57  CA  GLY     9      -1.632 -26.823   3.994  1.00  0.00     0.218 C 
BRANCH  57  58
ATOM     58  C   GLY     9      -0.891 -26.411   5.288  1.00  0.00     0.277 C 
ATOM     59  O   GLY     9       0.271 -26.031   5.218  1.00  0.00    -0.268 OA
ATOM     60  N   CYS    10      -1.415 -26.612   6.488  1.00  0.00    -0.228 NA
BRANCH  60  61
ATOM     61  CA  CYS    10      -2.706 -27.262   6.822  1.00  0.00     0.198 C 
BRANCH  61  62
ATOM     62  CB  CYS    10      -2.663 -27.990   8.170  1.00  0.00     0.103 C 
ATOM     63  SG  CYS    10      -1.194 -29.006   8.547  1.00  0.00    -0.080 SA
ENDBRANCH  61  62
BRANCH  61  64
ATOM     64  C   CYS    10      -3.880 -26.289   6.951  1.00  0.00     0.275 C 
ATOM     65  O   CYS    10      -3.654 -25.087   7.079  1.00  0.00    -0.268 OA
ATOM     66  N   GLY    11      -5.045 -26.806   6.596  1.00  0.00    -0.225 NA
BRANCH  66  67
ATOM     67  CA  GLY    11      -6.298 -26.400   7.250  1.00  0.00     0.226 C 
BRANCH  67  68
ATOM     68  C   GLY    11      -7.269 -26.115   6.094  1.00  0.00     0.211 C 
ATOM     69  O2  GLY    11      -8.288 -26.839   6.055  1.00  0.00    -0.646 OA
ATOM     70  O1  GLY    11      -7.162 -24.994   5.545  1.00  0.00    -0.646 OA
ENDBRANCH  67  68
ENDBRANCH  66  67
ENDBRANCH  61  64
ENDBRANCH  60  61
ENDBRANCH  57  58
ENDBRANCH  55  57
ENDBRANCH  53  54
ENDBRANCH  52  53
ENDBRANCH  49  50
BRANCH  49  71
ATOM     71  CB  SER     7      -7.134 -21.403   3.991  1.00  0.00     0.216 C 
ATOM     72  OG  SER     7      -7.799 -20.706   5.045  1.00  0.00    -0.218 OA
ENDBRANCH  49  71
ENDBRANCH  47  49
ENDBRANCH  42  46
ENDBRANCH   1  39
TORSDOF 33
ENDMDL
MODEL 2
REMARK VINA RESULT:      -4.6      2.483      3.160
REMARK WARNING: 32 MAX_TORS EXCEEDED!!!
REMARK  33 active torsions:
REMARK  status: ('A' for Active; 'I' for Inactive)
REMARK    1  A    between atoms: CA_2  and  C_8 
REMARK    2  A    between atoms: CA_2  and  CB_3 
REMARK    3  A    between atoms: CB_3  and  CG_4 
REMARK    4  A    between atoms: CG_4  and  CD_5 
REMARK       I    between atoms: C_8  and  N_10 
REMARK    5  A    between atoms: N_10  and  CA_11 
REMARK    6  A    between atoms: CA_11  and  C_12 
REMARK       I    between atoms: C_12  and  N_14 
REMARK    7  A    between atoms: N_14  and  CA_15 
REMARK    8  A    between atoms: CA_15  and  C_20 
REMARK    9  A    between atoms: CA_15  and  CB_16 
REMARK   10  A    between atoms: CB_16  and  CG_17 
REMARK       I    between atoms: C_20  and  N_22 
REMARK   11  A    between atoms: N_22  and  CA_23 
REMARK   12  A    between atoms: CA_23  and  CB_24 
REMARK   13  A    between atoms: CA_23  and  C_28 
REMARK   14  A    between atoms: CB_24  and  CG_25 
REMARK       I    between atoms: C_28  and  N_30 
REMARK   15  A    between atoms: N_30  and  CA_31 
REMARK   16  A    between atoms: CA_31  and  CB_32 
REMARK   17  A    between atoms: CA_31  and  C_39 
REMARK   18  A    between atoms: CB_32  and  CG_33 
REMARK   19  A    between atoms: CG_33  and  CD_34 
REMARK   20  A    between atoms: CD_34  and  NE_35 
REMARK       I    between atoms: C_39  and  N_41 
REMARK   21  A    between atoms: CA_42  and  C_46 
REMARK       I    between atoms: C_46  and  N_48 
REMARK   22  A    between atoms: N_48  and  CA_49 
REMARK   23  A    between atoms: CA_49  and  C_52 
REMARK   24  A    between atoms: CA_49  and  CB_50 
REMARK       I    between atoms: C_52  and  N_54 
REMARK   25  A    between atoms: N_54  and  CA_55 
REMARK   26  A    between atoms: CA_55  and  C_56 
REMARK       I    between atoms: C_56  and  N_58 
REMARK   27  A    between atoms: N_58  and  CA_59 
REMARK   28  A    between atoms: CA_59  and  C_60 
REMARK       I    between atoms: C_60  and  N_62 
REMARK   29  A    between atoms: N_62  and  CA_63 
REMARK   30  A    between atoms: CA_63  and  CB_64 
REMARK   31  A    between atoms: CA_63  and  C_66 
REMARK       I    between atoms: C_66  and  N_68 
REMARK   32  A    between atoms: N_68  and  CA_69 
REMARK   33  A    between atoms: CA_69  and  C_70 
ROOT
ATOM      1  CA  ARG     5      -0.731 -21.649   7.867  1.00  0.00     0.185 C 
ENDROOT
BRANCH   1   2
ATOM      2  N   ARG     5      -0.305 -20.318   8.337  1.00  0.00    -0.229 NA
ATOM      3  C   ASN     4       0.947 -19.932   8.530  1.00  0.00     0.275 C 
ATOM      4  O   ASN     4       1.904 -20.697   8.587  1.00  0.00    -0.268 OA
BRANCH   3   5
ATOM      5  CA  ASN     4       1.052 -18.470   9.013  1.00  0.00     0.196 C 
BRANCH   5   6
ATOM      6  N   ASN     4       2.192 -17.787   8.367  1.00  0.00    -0.228 NA
ATOM      7  C   LEU     3       3.335 -17.523   8.997  1.00  0.00     0.274 C 
ATOM      8  O   LEU     3       3.580 -17.817  10.170  1.00  0.00    -0.268 OA
BRANCH   7   9
ATOM      9  CA  LEU     3       4.407 -16.858   8.133  1.00  0.00     0.186 C 
BRANCH   9  10
ATOM     10  N   LEU     3       5.706 -17.531   8.352  1.00  0.00    -0.229 NA
ATOM     11  C   GLY     2       6.839 -16.863   8.587  1.00  0.00     0.277 C 
ATOM     12  O   GLY     2       6.875 -15.659   8.796  1.00  0.00    -0.268 OA
BRANCH  11  13
ATOM     13  CA  GLY     2       8.110 -17.722   8.755  1.00  0.00     0.218 C 
BRANCH  13  14
ATOM     14  N   GLY     2       8.745 -18.275   7.534  1.00  0.00    -0.226 NA
ATOM     15  C   GLU     1       9.570 -17.548   6.772  1.00  0.00     0.289 C 
ATOM     16  O   GLU     1       9.965 -16.454   7.138  1.00  0.00    -0.268 OA
BRANCH  15  17
ATOM     17  CA  GLU     1      10.090 -18.158   5.443  1.00  0.00     0.381 C 
ATOM     18  N   GLU     1      10.232 -19.624   5.481  1.00  0.00     0.626 N 
BRANCH  17  19
ATOM     19  CB  GLU     1       9.155 -17.715   4.300  1.00  0.00     0.060 C 
BRANCH  19  20
ATOM     20  CG  GLU     1       9.743 -17.447   2.906  1.00  0.00     0.100 C 
BRANCH  20  21
ATOM     21  CD  GLU     1       9.089 -16.247   2.204  1.00  0.00     0.185 C 
ATOM     22  OE1 GLU     1       9.704 -15.165   2.189  1.00  0.00    -0.647 OA
ATOM     23  OE2 GLU     1       7.959 -16.395   1.708  1.00  0.00    -0.647 OA
ENDBRANCH  20  21
ENDBRANCH  19  20
ENDBRANCH  17  19
ENDBRANCH  15  17
ENDBRANCH  13  14
ENDBRANCH  11  13
ENDBRANCH   9  10
BRANCH   9  24
ATOM     24  CB  LEU     3       3.989 -16.962   6.662  1.00  0.00     0.034 C 
BRANCH  24  25
ATOM     25  CG  LEU     3       4.730 -15.982   5.734  1.00  0.00     0.002 C 
ATOM     26  CD1 LEU     3       5.579 -16.768   4.737  1.00  0.00     0.000 C 
ATOM     27  CD2 LEU     3       3.747 -15.075   4.986  1.00  0.00     0.000 C 
ENDBRANCH  24  25
ENDBRANCH   9  24
ENDBRANCH   7   9
ENDBRANCH   5   6
BRANCH   5  28
ATOM     28  CB  ASN     4      -0.251 -17.695   8.750  1.00  0.00     0.126 C 
BRANCH  28  29
ATOM     29  CG  ASN     4      -0.545 -16.605   9.798  1.00  0.00     0.276 C 
ATOM     30  ND2 ASN     4      -1.800 -16.432  10.119  1.00  0.00    -0.107 N 
ATOM     31  OD1 ASN     4       0.315 -15.962  10.369  1.00  0.00    -0.269 OA
ENDBRANCH  28  29
ENDBRANCH   5  28
ENDBRANCH   3   5
ENDBRANCH   1   2
BRANCH   1  32
ATOM     32  CB  ARG     5      -0.968 -22.588   9.054  1.00  0.00     0.036 C 
BRANCH  32  33
ATOM     33  CG  ARG     5      -0.491 -24.021   8.814  1.00  0.00     0.029 C 
BRANCH  33  34
ATOM     34  CD  ARG     5       1.000 -24.013   8.492  1.00  0.00     0.145 C 
BRANCH  34  35
ATOM     35  NE  ARG     5       1.391 -25.170   7.650  1.00  0.00    -0.083 NA
ATOM     36  CZ  ARG     5       0.881 -25.442   6.440  1.00  0.00     0.782 C 
ATOM     37  NH2 ARG     5       1.452 -26.355   5.636  1.00  0.00     0.063 N 
ATOM     38  NH1 ARG     5      -0.125 -24.739   5.940  1.00  0.00     0.063 N 
ENDBRANCH  34  35
ENDBRANCH  33  34
ENDBRANCH  32  33
ENDBRANCH   1  32
BRANCH   1  39
ATOM     39  C   ARG     5      -2.028 -21.515   7.048  1.00  0.00     0.256 C 
ATOM     40  O   ARG     5      -2.062 -21.921   5.883  1.00  0.00    -0.270 OA
ATOM     41  N   PRO     6      -3.107 -21.048   7.684  1.00  0.00    -0.312 N 
ATOM     42  CA  PRO     6      -4.421 -20.825   7.040  1.00  0.00     0.165 C 
ATOM     43  CD  PRO     6      -3.215 -20.832   9.144  1.00  0.00     0.105 C 
ATOM     44  CB  PRO     6      -5.290 -20.197   8.131  1.00  0.00     0.034 C 
ATOM     45  CG  PRO     6      -4.721 -20.797   9.408  1.00  0.00     0.027 C 
BRANCH  42  46
ATOM     46  C   PRO     6      -4.299 -19.888   5.827  1.00  0.00     0.272 C 
ATOM     47  N   SER     7      -4.692 -20.313   4.634  1.00  0.00    -0.226 NA
ATOM     48  O   PRO     6      -3.743 -18.792   5.947  1.00  0.00    -0.269 OA
BRANCH  47  49
ATOM     49  CA  SER     7      -5.251 -21.647   4.307  1.00  0.00     0.219 C 
BRANCH  49  50
ATOM     50  C   SER     7      -4.537 -22.292   3.107  1.00  0.00     0.277 C 
ATOM     51  O   SER     7      -4.548 -21.719   2.023  1.00  0.00    -0.268 OA
ATOM     52  N   GLY     8      -3.751 -23.322   3.389  1.00  0.00    -0.226 NA
BRANCH  52  53
ATOM     53  CA  GLY     8      -3.162 -24.178   2.325  1.00  0.00     0.218 C 
BRANCH  53  54
ATOM     54  C   GLY     8      -3.377 -25.700   2.415  1.00  0.00     0.277 C 
ATOM     55  N   GLY     9      -2.315 -26.450   2.743  1.00  0.00    -0.226 NA
ATOM     56  O   GLY     8      -4.487 -26.174   2.234  1.00  0.00    -0.268 OA
BRANCH  55  57
ATOM     57  CA  GLY     9      -2.365 -27.924   2.828  1.00  0.00     0.218 C 
BRANCH  57  58
ATOM     58  C   GLY     9      -1.583 -28.446   4.057  1.00  0.00     0.277 C 
ATOM     59  O   GLY     9      -1.576 -27.786   5.089  1.00  0.00    -0.268 OA
ATOM     60  N   CYS    10      -0.784 -29.501   3.981  1.00  0.00    -0.228 NA
BRANCH  60  61
ATOM     61  CA  CYS    10      -0.463 -30.316   2.784  1.00  0.00     0.198 C 
BRANCH  61  62
ATOM     62  CB  CYS    10       1.047 -30.473   2.572  1.00  0.00     0.103 C 
ATOM     63  SG  CYS    10       2.159 -29.325   3.455  1.00  0.00    -0.080 SA
ENDBRANCH  61  62
BRANCH  61  64
ATOM     64  C   CYS    10      -0.990 -31.751   2.847  1.00  0.00     0.275 C 
ATOM     65  O   CYS    10      -0.260 -32.641   3.281  1.00  0.00    -0.268 OA
ATOM     66  N   GLY    11      -2.303 -31.845   2.716  1.00  0.00    -0.225 NA
BRANCH  66  67
ATOM     67  CA  GLY    11      -2.930 -33.002   2.061  1.00  0.00     0.226 C 
BRANCH  67  68
ATOM     68  C   GLY    11      -4.336 -33.087   2.676  1.00  0.00     0.211 C 
ATOM     69  O2  GLY    11      -4.546 -32.330   3.648  1.00  0.00    -0.646 OA
ATOM     70  O1  GLY    11      -5.226 -33.592   1.953  1.00  0.00    -0.646 OA
ENDBRANCH  67  68
ENDBRANCH  66  67
ENDBRANCH  61  64
ENDBRANCH  60  61
ENDBRANCH  57  58
ENDBRANCH  55  57
ENDBRANCH  53  54
ENDBRANCH  52  53
ENDBRANCH  49  50
BRANCH  49  71
ATOM     71  CB  SER     7      -6.740 -21.566   3.962  1.00  0.00     0.216 C 
ATOM     72  OG  SER     7      -7.195 -22.829   3.474  1.00  0.00    -0.218 OA
ENDBRANCH  49  71
ENDBRANCH  47  49
ENDBRANCH  42  46
ENDBRANCH   1  39
TORSDOF 33
ENDMDL
MODEL 3
REMARK VINA RESULT:      -4.6      2.373      3.057
REMARK WARNING: 32 MAX_TORS EXCEEDED!!!
REMARK  33 active torsions:
REMARK  status: ('A' for Active; 'I' for Inactive)
REMARK    1  A    between atoms: CA_2  and  C_8 
REMARK    2  A    between atoms: CA_2  and  CB_3 
REMARK    3  A    between atoms: CB_3  and  CG_4 
REMARK    4  A    between atoms: CG_4  and  CD_5 
REMARK       I    between atoms: C_8  and  N_10 
REMARK    5  A    between atoms: N_10  and  CA_11 
REMARK    6  A    between atoms: CA_11  and  C_12 
REMARK       I    between atoms: C_12  and  N_14 
REMARK    7  A    between atoms: N_14  and  CA_15 
REMARK    8  A    between atoms: CA_15  and  C_20 
REMARK    9  A    between atoms: CA_15  and  CB_16 
REMARK   10  A    between atoms: CB_16  and  CG_17 
REMARK       I    between atoms: C_20  and  N_22 
REMARK   11  A    between atoms: N_22  and  CA_23 
REMARK   12  A    between atoms: CA_23  and  CB_24 
REMARK   13  A    between atoms: CA_23  and  C_28 
REMARK   14  A    between atoms: CB_24  and  CG_25 
REMARK       I    between atoms: C_28  and  N_30 
REMARK   15  A    between atoms: N_30  and  CA_31 
REMARK   16  A    between atoms: CA_31  and  CB_32 
REMARK   17  A    between atoms: CA_31  and  C_39 
REMARK   18  A    between atoms: CB_32  and  CG_33 
REMARK   19  A    between atoms: CG_33  and  CD_34 
REMARK   20  A    between atoms: CD_34  and  NE_35 
REMARK       I    between atoms: C_39  and  N_41 
REMARK   21  A    between atoms: CA_42  and  C_46 
REMARK       I    between atoms: C_46  and  N_48 
REMARK   22  A    between atoms: N_48  and  CA_49 
REMARK   23  A    between atoms: CA_49  and  C_52 
REMARK   24  A    between atoms: CA_49  and  CB_50 
REMARK       I    between atoms: C_52  and  N_54 
REMARK   25  A    between atoms: N_54  and  CA_55 
REMARK   26  A    between atoms: CA_55  and  C_56 
REMARK       I    between atoms: C_56  and  N_58 
REMARK   27  A    between atoms: N_58  and  CA_59 
REMARK   28  A    between atoms: CA_59  and  C_60 
REMARK       I    between atoms: C_60  and  N_62 
REMARK   29  A    between atoms: N_62  and  CA_63 
REMARK   30  A    between atoms: CA_63  and  CB_64 
REMARK   31  A    between atoms: CA_63  and  C_66 
REMARK       I    between atoms: C_66  and  N_68 
REMARK   32  A    between atoms: N_68  and  CA_69 
REMARK   33  A    between atoms: CA_69  and  C_70 
ROOT
ATOM      1  CA  ARG     5       0.300 -22.237   7.529  1.00  0.00     0.185 C 
ENDROOT
BRANCH   1   2
ATOM      2  N   ARG     5       0.989 -21.169   8.278  1.00  0.00    -0.229 NA
ATOM      3  C   ASN     4       2.300 -21.051   8.423  1.00  0.00     0.275 C 
ATOM      4  O   ASN     4       3.105 -21.942   8.173  1.00  0.00    -0.268 OA
BRANCH   3   5
ATOM      5  CA  ASN     4       2.697 -19.813   9.253  1.00  0.00     0.196 C 
BRANCH   5   6
ATOM      6  N   ASN     4       3.354 -18.800   8.400  1.00  0.00    -0.228 NA
ATOM      7  C   LEU     3       4.672 -18.732   8.233  1.00  0.00     0.274 C 
ATOM      8  O   LEU     3       5.492 -19.495   8.753  1.00  0.00    -0.268 OA
BRANCH   7   9
ATOM      9  CA  LEU     3       5.144 -17.646   7.267  1.00  0.00     0.186 C 
BRANCH   9  10
ATOM     10  N   LEU     3       5.908 -18.264   6.161  1.00  0.00    -0.229 NA
ATOM     11  C   GLY     2       7.204 -18.016   5.947  1.00  0.00     0.277 C 
ATOM     12  O   GLY     2       7.903 -17.387   6.727  1.00  0.00    -0.268 OA
BRANCH  11  13
ATOM     13  CA  GLY     2       7.834 -18.717   4.725  1.00  0.00     0.218 C 
BRANCH  13  14
ATOM     14  N   GLY     2       8.165 -17.891   3.539  1.00  0.00    -0.226 NA
ATOM     15  C   GLU     1       9.283 -18.083   2.829  1.00  0.00     0.289 C 
ATOM     16  O   GLU     1       9.996 -19.053   3.027  1.00  0.00    -0.268 OA
BRANCH  15  17
ATOM     17  CA  GLU     1       9.618 -17.094   1.682  1.00  0.00     0.381 C 
ATOM     18  N   GLU     1       8.639 -16.002   1.537  1.00  0.00     0.626 N 
BRANCH  17  19
ATOM     19  CB  GLU     1      11.041 -16.545   1.907  1.00  0.00     0.060 C 
BRANCH  19  20
ATOM     20  CG  GLU     1      11.279 -15.490   2.999  1.00  0.00     0.100 C 
BRANCH  20  21
ATOM     21  CD  GLU     1      11.685 -14.123   2.428  1.00  0.00     0.185 C 
ATOM     22  OE1 GLU     1      12.586 -14.085   1.571  1.00  0.00    -0.647 OA
ATOM     23  OE2 GLU     1      11.119 -13.107   2.868  1.00  0.00    -0.647 OA
ENDBRANCH  20  21
ENDBRANCH  19  20
ENDBRANCH  17  19
ENDBRANCH  15  17
ENDBRANCH  13  14
ENDBRANCH  11  13
ENDBRANCH   9  10
BRANCH   9  24
ATOM     24  CB  LEU     3       3.918 -16.903   6.724  1.00  0.00     0.034 C 
BRANCH  24  25
ATOM     25  CG  LEU     3       4.220 -15.472   6.242  1.00  0.00     0.002 C 
ATOM     26  CD1 LEU     3       3.869 -15.349   4.761  1.00  0.00     0.000 C 
ATOM     27  CD2 LEU     3       3.437 -14.436   7.055  1.00  0.00     0.000 C 
ENDBRANCH  24  25
ENDBRANCH   9  24
ENDBRANCH   7   9
ENDBRANCH   5   6
BRANCH   5  28
ATOM     28  CB  ASN     4       1.480 -19.198   9.966  1.00  0.00     0.126 C 
BRANCH  28  29
ATOM     29  CG  ASN     4       1.132 -17.777   9.483  1.00  0.00     0.276 C 
ATOM     30  ND2 ASN     4       0.194 -17.686   8.577  1.00  0.00    -0.107 N 
ATOM     31  OD1 ASN     4       1.629 -16.765   9.938  1.00  0.00    -0.269 OA
ENDBRANCH  28  29
ENDBRANCH   5  28
ENDBRANCH   3   5
ENDBRANCH   1   2
BRANCH   1  32
ATOM     32  CB  ARG     5       0.193 -23.507   8.380  1.00  0.00     0.036 C 
BRANCH  32  33
ATOM     33  CG  ARG     5       0.710 -24.765   7.682  1.00  0.00     0.029 C 
BRANCH  33  34
ATOM     34  CD  ARG     5       1.228 -25.749   8.727  1.00  0.00     0.145 C 
BRANCH  34  35
ATOM     35  NE  ARG     5       2.543 -25.337   9.273  1.00  0.00    -0.083 NA
ATOM     36  CZ  ARG     5       3.730 -25.735   8.792  1.00  0.00     0.782 C 
ATOM     37  NH2 ARG     5       4.870 -25.135   9.173  1.00  0.00     0.063 N 
ATOM     38  NH1 ARG     5       3.816 -26.645   7.832  1.00  0.00     0.063 N 
ENDBRANCH  34  35
ENDBRANCH  33  34
ENDBRANCH  32  33
ENDBRANCH   1  32
BRANCH   1  39
ATOM     39  C   ARG     5      -1.110 -21.761   7.133  1.00  0.00     0.256 C 
ATOM     40  O   ARG     5      -1.562 -22.045   6.020  1.00  0.00    -0.270 OA
ATOM     41  N   PRO     6      -1.830 -21.138   8.070  1.00  0.00    -0.312 N 
ATOM     42  CA  PRO     6      -3.186 -20.588   7.848  1.00  0.00     0.165 C 
ATOM     43  CD  PRO     6      -1.471 -21.036   9.502  1.00  0.00     0.105 C 
ATOM     44  CB  PRO     6      -3.547 -19.892   9.161  1.00  0.00     0.034 C 
ATOM     45  CG  PRO     6      -2.793 -20.710  10.199  1.00  0.00     0.027 C 
BRANCH  42  46
ATOM     46  C   PRO     6      -3.202 -19.591   6.677  1.00  0.00     0.272 C 
ATOM     47  N   SER     7      -4.195 -19.634   5.799  1.00  0.00    -0.226 NA
ATOM     48  O   PRO     6      -2.245 -18.832   6.498  1.00  0.00    -0.269 OA
BRANCH  47  49
ATOM     49  CA  SER     7      -5.342 -20.575   5.802  1.00  0.00     0.219 C 
BRANCH  49  50
ATOM     50  C   SER     7      -5.619 -21.148   4.401  1.00  0.00     0.277 C 
ATOM     51  O   SER     7      -6.753 -21.081   3.938  1.00  0.00    -0.268 OA
ATOM     52  N   GLY     8      -4.549 -21.470   3.687  1.00  0.00    -0.226 NA
BRANCH  52  53
ATOM     53  CA  GLY     8      -4.653 -22.226   2.411  1.00  0.00     0.218 C 
BRANCH  53  54
ATOM     54  C   GLY     8      -4.209 -23.700   2.401  1.00  0.00     0.277 C 
ATOM     55  N   GLY     9      -2.911 -23.950   2.629  1.00  0.00    -0.226 NA
ATOM     56  O   GLY     8      -5.030 -24.586   2.234  1.00  0.00    -0.268 OA
BRANCH  55  57
ATOM     57  CA  GLY     9      -2.337 -25.310   2.611  1.00  0.00     0.218 C 
BRANCH  57  58
ATOM     58  C   GLY     9      -1.904 -25.761   4.026  1.00  0.00     0.277 C 
ATOM     59  O   GLY     9      -1.320 -24.970   4.756  1.00  0.00    -0.268 OA
ATOM     60  N   CYS    10      -1.995 -27.025   4.416  1.00  0.00    -0.228 NA
BRANCH  60  61
ATOM     61  CA  CYS    10      -2.458 -28.191   3.625  1.00  0.00     0.198 C 
BRANCH  61  62
ATOM     62  CB  CYS    10      -1.657 -29.462   3.935  1.00  0.00     0.103 C 
ATOM     63  SG  CYS    10      -1.054 -30.457   2.529  1.00  0.00    -0.080 SA
ENDBRANCH  61  62
BRANCH  61  64
ATOM     64  C   CYS    10      -3.913 -28.585   3.885  1.00  0.00     0.275 C 
ATOM     65  O   CYS    10      -4.156 -29.536   4.627  1.00  0.00    -0.268 OA
ATOM     66  N   GLY    11      -4.789 -27.659   3.530  1.00  0.00    -0.225 NA
BRANCH  66  67
ATOM     67  CA  GLY    11      -6.123 -28.016   3.025  1.00  0.00     0.226 C 
BRANCH  67  68
ATOM     68  C   GLY    11      -7.104 -27.358   4.007  1.00  0.00     0.211 C 
ATOM     69  O2  GLY    11      -8.159 -27.993   4.222  1.00  0.00    -0.646 OA
ATOM     70  O1  GLY    11      -6.625 -26.483   4.765  1.00  0.00    -0.646 OA
ENDBRANCH  67  68
ENDBRANCH  66  67
ENDBRANCH  61  64
ENDBRANCH  60  61
ENDBRANCH  57  58
ENDBRANCH  55  57
ENDBRANCH  53  54
ENDBRANCH  52  53
ENDBRANCH  49  50
BRANCH  49  71
ATOM     71  CB  SER     7      -6.628 -19.897   6.280  1.00  0.00     0.216 C 
ATOM     72  OG  SER     7      -6.734 -20.001   7.700  1.00  0.00    -0.218 OA
ENDBRANCH  49  71
ENDBRANCH  47  49
ENDBRANCH  42  46
ENDBRANCH   1  39
TORSDOF 33
ENDMDL
MODEL 4
REMARK VINA RESULT:      -4.5     29.874     36.085
REMARK WARNING: 32 MAX_TORS EXCEEDED!!!
REMARK  33 active torsions:
REMARK  status: ('A' for Active; 'I' for Inactive)
REMARK    1  A    between atoms: CA_2  and  C_8 
REMARK    2  A    between atoms: CA_2  and  CB_3 
REMARK    3  A    between atoms: CB_3  and  CG_4 
REMARK    4  A    between atoms: CG_4  and  CD_5 
REMARK       I    between atoms: C_8  and  N_10 
REMARK    5  A    between atoms: N_10  and  CA_11 
REMARK    6  A    between atoms: CA_11  and  C_12 
REMARK       I    between atoms: C_12  and  N_14 
REMARK    7  A    between atoms: N_14  and  CA_15 
REMARK    8  A    between atoms: CA_15  and  C_20 
REMARK    9  A    between atoms: CA_15  and  CB_16 
REMARK   10  A    between atoms: CB_16  and  CG_17 
REMARK       I    between atoms: C_20  and  N_22 
REMARK   11  A    between atoms: N_22  and  CA_23 
REMARK   12  A    between atoms: CA_23  and  CB_24 
REMARK   13  A    between atoms: CA_23  and  C_28 
REMARK   14  A    between atoms: CB_24  and  CG_25 
REMARK       I    between atoms: C_28  and  N_30 
REMARK   15  A    between atoms: N_30  and  CA_31 
REMARK   16  A    between atoms: CA_31  and  CB_32 
REMARK   17  A    between atoms: CA_31  and  C_39 
REMARK   18  A    between atoms: CB_32  and  CG_33 
REMARK   19  A    between atoms: CG_33  and  CD_34 
REMARK   20  A    between atoms: CD_34  and  NE_35 
REMARK       I    between atoms: C_39  and  N_41 
REMARK   21  A    between atoms: CA_42  and  C_46 
REMARK       I    between atoms: C_46  and  N_48 
REMARK   22  A    between atoms: N_48  and  CA_49 
REMARK   23  A    between atoms: CA_49  and  C_52 
REMARK   24  A    between atoms: CA_49  and  CB_50 
REMARK       I    between atoms: C_52  and  N_54 
REMARK   25  A    between atoms: N_54  and  CA_55 
REMARK   26  A    between atoms: CA_55  and  C_56 
REMARK       I    between atoms: C_56  and  N_58 
REMARK   27  A    between atoms: N_58  and  CA_59 
REMARK   28  A    between atoms: CA_59  and  C_60 
REMARK       I    between atoms: C_60  and  N_62 
REMARK   29  A    between atoms: N_62  and  CA_63 
REMARK   30  A    between atoms: CA_63  and  CB_64 
REMARK   31  A    between atoms: CA_63  and  C_66 
REMARK       I    between atoms: C_66  and  N_68 
REMARK   32  A    between atoms: N_68  and  CA_69 
REMARK   33  A    between atoms: CA_69  and  C_70 
ROOT
ATOM      1  CA  ARG     5      -2.108  10.139   6.658  1.00  0.00     0.185 C 
ENDROOT
BRANCH   1   2
ATOM      2  N   ARG     5      -3.117  11.097   7.145  1.00  0.00    -0.229 NA
ATOM      3  C   ASN     4      -3.710  11.058   8.329  1.00  0.00     0.275 C 
ATOM      4  O   ASN     4      -3.690  10.087   9.079  1.00  0.00    -0.268 OA
BRANCH   3   5
ATOM      5  CA  ASN     4      -4.709  12.216   8.533  1.00  0.00     0.196 C 
BRANCH   5   6
ATOM      6  N   ASN     4      -4.141  13.488   8.038  1.00  0.00    -0.228 NA
ATOM      7  C   LEU     3      -4.391  14.667   8.603  1.00  0.00     0.274 C 
ATOM      8  O   LEU     3      -5.106  14.838   9.595  1.00  0.00    -0.268 OA
BRANCH   7   9
ATOM      9  CA  LEU     3      -3.663  15.852   7.971  1.00  0.00     0.186 C 
BRANCH   9  10
ATOM     10  N   LEU     3      -4.494  16.424   6.888  1.00  0.00    -0.229 NA
ATOM     11  C   GLY     2      -3.993  17.202   5.924  1.00  0.00     0.277 C 
ATOM     12  O   GLY     2      -2.795  17.380   5.761  1.00  0.00    -0.268 OA
BRANCH  11  13
ATOM     13  CA  GLY     2      -5.009  17.743   4.896  1.00  0.00     0.218 C 
BRANCH  13  14
ATOM     14  N   GLY     2      -5.894  16.771   4.209  1.00  0.00    -0.226 NA
ATOM     15  C   GLU     1      -5.618  16.301   2.987  1.00  0.00     0.289 C 
ATOM     16  O   GLU     1      -4.543  16.524   2.454  1.00  0.00    -0.268 OA
BRANCH  15  17
ATOM     17  CA  GLU     1      -6.658  15.388   2.286  1.00  0.00     0.381 C 
ATOM     18  N   GLU     1      -6.142  14.049   1.954  1.00  0.00     0.626 N 
BRANCH  17  19
ATOM     19  CB  GLU     1      -7.913  15.299   3.179  1.00  0.00     0.060 C 
BRANCH  19  20
ATOM     20  CG  GLU     1      -8.465  13.918   3.568  1.00  0.00     0.100 C 
BRANCH  20  21
ATOM     21  CD  GLU     1      -8.172  13.551   5.030  1.00  0.00     0.185 C 
ATOM     22  OE1 GLU     1      -8.863  12.666   5.567  1.00  0.00    -0.647 OA
ATOM     23  OE2 GLU     1      -7.278  14.172   5.629  1.00  0.00    -0.647 OA
ENDBRANCH  20  21
ENDBRANCH  19  20
ENDBRANCH  17  19
ENDBRANCH  15  17
ENDBRANCH  13  14
ENDBRANCH  11  13
ENDBRANCH   9  10
BRANCH   9  24
ATOM     24  CB  LEU     3      -3.396  16.903   9.056  1.00  0.00     0.034 C 
BRANCH  24  25
ATOM     25  CG  LEU     3      -1.974  16.845   9.642  1.00  0.00     0.002 C 
ATOM     26  CD1 LEU     3      -1.020  16.255   8.604  1.00  0.00     0.000 C 
ATOM     27  CD2 LEU     3      -1.492  18.237  10.065  1.00  0.00     0.000 C 
ENDBRANCH  24  25
ENDBRANCH   9  24
ENDBRANCH   7   9
ENDBRANCH   5   6
BRANCH   5  28
ATOM     28  CB  ASN     4      -6.052  11.930   7.841  1.00  0.00     0.126 C 
BRANCH  28  29
ATOM     29  CG  ASN     4      -7.198  11.614   8.822  1.00  0.00     0.276 C 
ATOM     30  ND2 ASN     4      -7.034  12.014  10.055  1.00  0.00    -0.107 N 
ATOM     31  OD1 ASN     4      -8.243  11.084   8.496  1.00  0.00    -0.269 OA
ENDBRANCH  28  29
ENDBRANCH   5  28
ENDBRANCH   3   5
ENDBRANCH   1   2
BRANCH   1  32
ATOM     32  CB  ARG     5      -2.006  10.196   5.130  1.00  0.00     0.036 C 
BRANCH  32  33
ATOM     33  CG  ARG     5      -3.324   9.909   4.410  1.00  0.00     0.029 C 
BRANCH  33  34
ATOM     34  CD  ARG     5      -3.697   8.443   4.601  1.00  0.00     0.145 C 
BRANCH  34  35
ATOM     35  NE  ARG     5      -4.972   8.286   5.342  1.00  0.00    -0.083 NA
ATOM     36  CZ  ARG     5      -5.458   7.120   5.790  1.00  0.00     0.782 C 
ATOM     37  NH2 ARG     5      -6.483   7.082   6.659  1.00  0.00     0.063 N 
ATOM     38  NH1 ARG     5      -4.872   5.968   5.495  1.00  0.00     0.063 N 
ENDBRANCH  34  35
ENDBRANCH  33  34
ENDBRANCH  32  33
ENDBRANCH   1  32
BRANCH   1  39
ATOM     39  C   ARG     5      -0.739  10.473   7.279  1.00  0.00     0.256 C 
ATOM     40  O   ARG     5      -0.327  11.637   7.264  1.00  0.00    -0.270 OA
ATOM     41  N   PRO     6      -0.095   9.485   7.907  1.00  0.00    -0.312 N 
ATOM     42  CA  PRO     6       1.242   9.625   8.527  1.00  0.00     0.165 C 
ATOM     43  CD  PRO     6      -0.663   8.157   8.225  1.00  0.00     0.105 C 
ATOM     44  CB  PRO     6       1.595   8.221   9.020  1.00  0.00     0.034 C 
ATOM     45  CG  PRO     6       0.234   7.620   9.341  1.00  0.00     0.027 C 
BRANCH  42  46
ATOM     46  C   PRO     6       2.282  10.128   7.512  1.00  0.00     0.272 C 
ATOM     47  N   SER     7       3.120  11.094   7.863  1.00  0.00    -0.226 NA
ATOM     48  O   PRO     6       2.263   9.710   6.351  1.00  0.00    -0.269 OA
BRANCH  47  49
ATOM     49  CA  SER     7       3.175  11.789   9.172  1.00  0.00     0.219 C 
BRANCH  49  50
ATOM     50  C   SER     7       3.394  13.304   9.010  1.00  0.00     0.277 C 
ATOM     51  O   SER     7       2.766  14.080   9.721  1.00  0.00    -0.268 OA
ATOM     52  N   GLY     8       4.432  13.661   8.266  1.00  0.00    -0.226 NA
BRANCH  52  53
ATOM     53  CA  GLY     8       4.652  15.070   7.845  1.00  0.00     0.218 C 
BRANCH  53  54
ATOM     54  C   GLY     8       5.890  15.387   6.988  1.00  0.00     0.277 C 
ATOM     55  N   GLY     9       6.648  16.426   7.368  1.00  0.00    -0.226 NA
ATOM     56  O   GLY     8       6.172  14.681   6.034  1.00  0.00    -0.268 OA
BRANCH  55  57
ATOM     57  CA  GLY     9       7.841  16.870   6.619  1.00  0.00     0.218 C 
BRANCH  57  58
ATOM     58  C   GLY     9       9.146  16.515   7.373  1.00  0.00     0.277 C 
ATOM     59  O   GLY     9       9.551  17.261   8.255  1.00  0.00    -0.268 OA
ATOM     60  N   CYS    10       9.929  15.519   6.983  1.00  0.00    -0.228 NA
BRANCH  60  61
ATOM     61  CA  CYS    10       9.755  14.628   5.810  1.00  0.00     0.198 C 
BRANCH  61  62
ATOM     62  CB  CYS    10      11.062  14.420   5.036  1.00  0.00     0.103 C 
ATOM     63  SG  CYS    10      11.940  15.900   4.425  1.00  0.00    -0.080 SA
ENDBRANCH  61  62
BRANCH  61  64
ATOM     64  C   CYS    10       9.292  13.213   6.163  1.00  0.00     0.275 C 
ATOM     65  O   CYS    10       9.536  12.290   5.388  1.00  0.00    -0.268 OA
ATOM     66  N   GLY    11       8.943  13.065   7.431  1.00  0.00    -0.225 NA
BRANCH  66  67
ATOM     67  CA  GLY    11       7.877  12.136   7.832  1.00  0.00     0.226 C 
BRANCH  67  68
ATOM     68  C   GLY    11       8.559  11.144   8.786  1.00  0.00     0.211 C 
ATOM     69  O2  GLY    11       9.268  10.271   8.240  1.00  0.00    -0.646 OA
ATOM     70  O1  GLY    11       8.658  11.505   9.981  1.00  0.00    -0.646 OA
ENDBRANCH  67  68
ENDBRANCH  66  67
ENDBRANCH  61  64
ENDBRANCH  60  61
ENDBRANCH  57  58
ENDBRANCH  55  57
ENDBRANCH  53  54
ENDBRANCH  52  53
ENDBRANCH  49  50
BRANCH  49  71
ATOM     71  CB  SER     7       4.311  11.255  10.048  1.00  0.00     0.216 C 
ATOM     72  OG  SER     7       5.101  10.325   9.306  1.00  0.00    -0.218 OA
ENDBRANCH  49  71
ENDBRANCH  47  49
ENDBRANCH  42  46
ENDBRANCH   1  39
TORSDOF 33
ENDMDL
MODEL 5
REMARK VINA RESULT:      -4.4      5.656     15.251
REMARK WARNING: 32 MAX_TORS EXCEEDED!!!
REMARK  33 active torsions:
REMARK  status: ('A' for Active; 'I' for Inactive)
REMARK    1  A    between atoms: CA_2  and  C_8 
REMARK    2  A    between atoms: CA_2  and  CB_3 
REMARK    3  A    between atoms: CB_3  and  CG_4 
REMARK    4  A    between atoms: CG_4  and  CD_5 
REMARK       I    between atoms: C_8  and  N_10 
REMARK    5  A    between atoms: N_10  and  CA_11 
REMARK    6  A    between atoms: CA_11  and  C_12 
REMARK       I    between atoms: C_12  and  N_14 
REMARK    7  A    between atoms: N_14  and  CA_15 
REMARK    8  A    between atoms: CA_15  and  C_20 
REMARK    9  A    between atoms: CA_15  and  CB_16 
REMARK   10  A    between atoms: CB_16  and  CG_17 
REMARK       I    between atoms: C_20  and  N_22 
REMARK   11  A    between atoms: N_22  and  CA_23 
REMARK   12  A    between atoms: CA_23  and  CB_24 
REMARK   13  A    between atoms: CA_23  and  C_28 
REMARK   14  A    between atoms: CB_24  and  CG_25 
REMARK       I    between atoms: C_28  and  N_30 
REMARK   15  A    between atoms: N_30  and  CA_31 
REMARK   16  A    between atoms: CA_31  and  CB_32 
REMARK   17  A    between atoms: CA_31  and  C_39 
REMARK   18  A    between atoms: CB_32  and  CG_33 
REMARK   19  A    between atoms: CG_33  and  CD_34 
REMARK   20  A    between atoms: CD_34  and  NE_35 
REMARK       I    between atoms: C_39  and  N_41 
REMARK   21  A    between atoms: CA_42  and  C_46 
REMARK       I    between atoms: C_46  and  N_48 
REMARK   22  A    between atoms: N_48  and  CA_49 
REMARK   23  A    between atoms: CA_49  and  C_52 
REMARK   24  A    between atoms: CA_49  and  CB_50 
REMARK       I    between atoms: C_52  and  N_54 
REMARK   25  A    between atoms: N_54  and  CA_55 
REMARK   26  A    between atoms: CA_55  and  C_56 
REMARK       I    between atoms: C_56  and  N_58 
REMARK   27  A    between atoms: N_58  and  CA_59 
REMARK   28  A    between atoms: CA_59  and  C_60 
REMARK       I    between atoms: C_60  and  N_62 
REMARK   29  A    between atoms: N_62  and  CA_63 
REMARK   30  A    between atoms: CA_63  and  CB_64 
REMARK   31  A    between atoms: CA_63  and  C_66 
REMARK       I    between atoms: C_66  and  N_68 
REMARK   32  A    between atoms: N_68  and  CA_69 
REMARK   33  A    between atoms: CA_69  and  C_70 
ROOT
ATOM      1  CA  ARG     5       4.946 -17.706   8.795  1.00  0.00     0.185 C 
ENDROOT
BRANCH   1   2
ATOM      2  N   ARG     5       3.479 -17.623   8.926  1.00  0.00    -0.229 NA
ATOM      3  C   ASN     4       2.720 -16.630   8.488  1.00  0.00     0.275 C 
ATOM      4  O   ASN     4       3.150 -15.535   8.142  1.00  0.00    -0.268 OA
BRANCH   3   5
ATOM      5  CA  ASN     4       1.221 -16.858   8.772  1.00  0.00     0.196 C 
BRANCH   5   6
ATOM      6  N   ASN     4       0.942 -18.294   8.984  1.00  0.00    -0.228 NA
ATOM      7  C   LEU     3      -0.139 -18.904   8.505  1.00  0.00     0.274 C 
ATOM      8  O   LEU     3      -1.019 -18.360   7.831  1.00  0.00    -0.268 OA
BRANCH   7   9
ATOM      9  CA  LEU     3      -0.212 -20.404   8.791  1.00  0.00     0.186 C 
BRANCH   9  10
ATOM     10  N   LEU     3      -0.381 -21.143   7.520  1.00  0.00    -0.229 NA
ATOM     11  C   GLY     2      -1.561 -21.613   7.106  1.00  0.00     0.277 C 
ATOM     12  O   GLY     2      -2.619 -21.342   7.654  1.00  0.00    -0.268 OA
BRANCH  11  13
ATOM     13  CA  GLY     2      -1.549 -22.393   5.774  1.00  0.00     0.218 C 
BRANCH  13  14
ATOM     14  N   GLY     2      -2.806 -23.048   5.337  1.00  0.00    -0.226 NA
ATOM     15  C   GLU     1      -3.019 -23.393   4.062  1.00  0.00     0.289 C 
ATOM     16  O   GLU     1      -2.124 -23.337   3.236  1.00  0.00    -0.268 OA
BRANCH  15  17
ATOM     17  CA  GLU     1      -4.410 -23.955   3.664  1.00  0.00     0.381 C 
ATOM     18  N   GLU     1      -4.972 -24.897   4.649  1.00  0.00     0.626 N 
BRANCH  17  19
ATOM     19  CB  GLU     1      -5.365 -22.770   3.415  1.00  0.00     0.060 C 
BRANCH  19  20
ATOM     20  CG  GLU     1      -6.679 -22.682   4.206  1.00  0.00     0.100 C 
BRANCH  20  21
ATOM     21  CD  GLU     1      -7.031 -21.244   4.616  1.00  0.00     0.185 C 
ATOM     22  OE1 GLU     1      -8.118 -20.771   4.239  1.00  0.00    -0.647 OA
ATOM     23  OE2 GLU     1      -6.203 -20.598   5.282  1.00  0.00    -0.647 OA
ENDBRANCH  20  21
ENDBRANCH  19  20
ENDBRANCH  17  19
ENDBRANCH  15  17
ENDBRANCH  13  14
ENDBRANCH  11  13
ENDBRANCH   9  10
BRANCH   9  24
ATOM     24  CB  LEU     3       1.081 -20.835   9.495  1.00  0.00     0.034 C 
BRANCH  24  25
ATOM     25  CG  LEU     3       1.560 -22.245   9.106  1.00  0.00     0.002 C 
ATOM     26  CD1 LEU     3       3.088 -22.278   9.097  1.00  0.00     0.000 C 
ATOM     27  CD2 LEU     3       1.019 -23.302  10.075  1.00  0.00     0.000 C 
ENDBRANCH  24  25
ENDBRANCH   9  24
ENDBRANCH   7   9
ENDBRANCH   5   6
BRANCH   5  28
ATOM     28  CB  ASN     4       0.746 -16.039   9.984  1.00  0.00     0.126 C 
BRANCH  28  29
ATOM     29  CG  ASN     4      -0.679 -15.474   9.831  1.00  0.00     0.276 C 
ATOM     30  ND2 ASN     4      -0.806 -14.420   9.069  1.00  0.00    -0.107 N 
ATOM     31  OD1 ASN     4      -1.668 -15.987  10.318  1.00  0.00    -0.269 OA
ENDBRANCH  28  29
ENDBRANCH   5  28
ENDBRANCH   3   5
ENDBRANCH   1   2
BRANCH   1  32
ATOM     32  CB  ARG     5       5.572 -18.232  10.091  1.00  0.00     0.036 C 
BRANCH  32  33
ATOM     33  CG  ARG     5       7.100 -18.177  10.107  1.00  0.00     0.029 C 
BRANCH  33  34
ATOM     34  CD  ARG     5       7.655 -19.569  10.388  1.00  0.00     0.145 C 
BRANCH  34  35
ATOM     35  NE  ARG     5       8.988 -19.771   9.770  1.00  0.00    -0.083 NA
ATOM     36  CZ  ARG     5       9.299 -20.770   8.931  1.00  0.00     0.782 C 
ATOM     37  NH2 ARG     5      10.440 -20.752   8.223  1.00  0.00     0.063 N 
ATOM     38  NH1 ARG     5       8.442 -21.747   8.674  1.00  0.00     0.063 N 
ENDBRANCH  34  35
ENDBRANCH  33  34
ENDBRANCH  32  33
ENDBRANCH   1  32
BRANCH   1  39
ATOM     39  C   ARG     5       5.307 -18.646   7.629  1.00  0.00     0.256 C 
ATOM     40  O   ARG     5       5.154 -19.864   7.755  1.00  0.00    -0.270 OA
ATOM     41  N   PRO     6       5.680 -18.077   6.479  1.00  0.00    -0.312 N 
ATOM     42  CA  PRO     6       6.092 -18.831   5.274  1.00  0.00     0.165 C 
ATOM     43  CD  PRO     6       5.592 -16.634   6.167  1.00  0.00     0.105 C 
ATOM     44  CB  PRO     6       6.519 -17.761   4.269  1.00  0.00     0.034 C 
ATOM     45  CG  PRO     6       5.640 -16.575   4.640  1.00  0.00     0.027 C 
BRANCH  42  46
ATOM     46  C   PRO     6       7.255 -19.789   5.582  1.00  0.00     0.272 C 
ATOM     47  N   SER     7       8.473 -19.297   5.765  1.00  0.00    -0.226 NA
ATOM     48  O   PRO     6       7.074 -21.010   5.552  1.00  0.00    -0.269 OA
BRANCH  47  49
ATOM     49  CA  SER     7       8.873 -17.871   5.698  1.00  0.00     0.219 C 
BRANCH  49  50
ATOM     50  C   SER     7       9.902 -17.614   4.584  1.00  0.00     0.277 C 
ATOM     51  O   SER     7      10.840 -18.391   4.441  1.00  0.00    -0.268 OA
ATOM     52  N   GLY     8       9.571 -16.687   3.695  1.00  0.00    -0.226 NA
BRANCH  52  53
ATOM     53  CA  GLY     8      10.540 -16.178   2.689  1.00  0.00     0.218 C 
BRANCH  53  54
ATOM     54  C   GLY     8      11.200 -14.811   2.944  1.00  0.00     0.277 C 
ATOM     55  N   GLY     9      12.335 -14.803   3.659  1.00  0.00    -0.226 NA
ATOM     56  O   GLY     8      10.716 -13.798   2.467  1.00  0.00    -0.268 OA
BRANCH  55  57
ATOM     57  CA  GLY     9      13.055 -13.563   4.013  1.00  0.00     0.218 C 
BRANCH  57  58
ATOM     58  C   GLY     9      14.587 -13.777   4.008  1.00  0.00     0.277 C 
ATOM     59  O   GLY     9      15.034 -14.906   3.850  1.00  0.00    -0.268 OA
ATOM     60  N   CYS    10      15.430 -12.807   4.335  1.00  0.00    -0.228 NA
BRANCH  60  61
ATOM     61  CA  CYS    10      15.106 -11.430   4.779  1.00  0.00     0.198 C 
BRANCH  61  62
ATOM     62  CB  CYS    10      15.050 -11.306   6.306  1.00  0.00     0.103 C 
ATOM     63  SG  CYS    10      15.846 -12.614   7.300  1.00  0.00    -0.080 SA
ENDBRANCH  61  62
BRANCH  61  64
ATOM     64  C   CYS    10      16.131 -10.378   4.349  1.00  0.00     0.275 C 
ATOM     65  O   CYS    10      17.167 -10.740   3.793  1.00  0.00    -0.268 OA
ATOM     66  N   GLY    11      15.657  -9.143   4.337  1.00  0.00    -0.225 NA
BRANCH  66  67
ATOM     67  CA  GLY    11      16.509  -7.989   4.656  1.00  0.00     0.226 C 
BRANCH  67  68
ATOM     68  C   GLY    11      15.528  -6.870   5.039  1.00  0.00     0.211 C 
ATOM     69  O2  GLY    11      15.361  -6.697   6.266  1.00  0.00    -0.646 OA
ATOM     70  O1  GLY    11      15.287  -6.018   4.154  1.00  0.00    -0.646 OA
ENDBRANCH  67  68
ENDBRANCH  66  67
ENDBRANCH  61  64
ENDBRANCH  60  61
ENDBRANCH  57  58
ENDBRANCH  55  57
ENDBRANCH  53  54
ENDBRANCH  52  53
ENDBRANCH  49  50
BRANCH  49  71
ATOM     71  CB  SER     7       9.496 -17.396   7.013  1.00  0.00     0.216 C 
ATOM     72  OG  SER     7      10.423 -16.340   6.758  1.00  0.00    -0.218 OA
ENDBRANCH  49  71
ENDBRANCH  47  49
ENDBRANCH  42  46
ENDBRANCH   1  39
TORSDOF 33
ENDMDL
MODEL 6
REMARK VINA RESULT:      -4.4      2.010      3.421
REMARK WARNING: 32 MAX_TORS EXCEEDED!!!
REMARK  33 active torsions:
REMARK  status: ('A' for Active; 'I' for Inactive)
REMARK    1  A    between atoms: CA_2  and  C_8 
REMARK    2  A    between atoms: CA_2  and  CB_3 
REMARK    3  A    between atoms: CB_3  and  CG_4 
REMARK    4  A    between atoms: CG_4  and  CD_5 
REMARK       I    between atoms: C_8  and  N_10 
REMARK    5  A    between atoms: N_10  and  CA_11 
REMARK    6  A    between atoms: CA_11  and  C_12 
REMARK       I    between atoms: C_12  and  N_14 
REMARK    7  A    between atoms: N_14  and  CA_15 
REMARK    8  A    between atoms: CA_15  and  C_20 
REMARK    9  A    between atoms: CA_15  and  CB_16 
REMARK   10  A    between atoms: CB_16  and  CG_17 
REMARK       I    between atoms: C_20  and  N_22 
REMARK   11  A    between atoms: N_22  and  CA_23 
REMARK   12  A    between atoms: CA_23  and  CB_24 
REMARK   13  A    between atoms: CA_23  and  C_28 
REMARK   14  A    between atoms: CB_24  and  CG_25 
REMARK       I    between atoms: C_28  and  N_30 
REMARK   15  A    between atoms: N_30  and  CA_31 
REMARK   16  A    between atoms: CA_31  and  CB_32 
REMARK   17  A    between atoms: CA_31  and  C_39 
REMARK   18  A    between atoms: CB_32  and  CG_33 
REMARK   19  A    between atoms: CG_33  and  CD_34 
REMARK   20  A    between atoms: CD_34  and  NE_35 
REMARK       I    between atoms: C_39  and  N_41 
REMARK   21  A    between atoms: CA_42  and  C_46 
REMARK       I    between atoms: C_46  and  N_48 
REMARK   22  A    between atoms: N_48  and  CA_49 
REMARK   23  A    between atoms: CA_49  and  C_52 
REMARK   24  A    between atoms: CA_49  and  CB_50 
REMARK       I    between atoms: C_52  and  N_54 
REMARK   25  A    between atoms: N_54  and  CA_55 
REMARK   26  A    between atoms: CA_55  and  C_56 
REMARK       I    between atoms: C_56  and  N_58 
REMARK   27  A    between atoms: N_58  and  CA_59 
REMARK   28  A    between atoms: CA_59  and  C_60 
REMARK       I    between atoms: C_60  and  N_62 
REMARK   29  A    between atoms: N_62  and  CA_63 
REMARK   30  A    between atoms: CA_63  and  CB_64 
REMARK   31  A    between atoms: CA_63  and  C_66 
REMARK       I    between atoms: C_66  and  N_68 
REMARK   32  A    between atoms: N_68  and  CA_69 
REMARK   33  A    between atoms: CA_69  and  C_70 
ROOT
ATOM      1  CA  ARG     5      -1.160 -21.369   8.470  1.00  0.00     0.185 C 
ENDROOT
BRANCH   1   2
ATOM      2  N   ARG     5      -0.651 -20.018   8.769  1.00  0.00    -0.229 NA
ATOM      3  C   ASN     4       0.621 -19.693   8.944  1.00  0.00     0.275 C 
ATOM      4  O   ASN     4       1.520 -20.506   9.131  1.00  0.00    -0.268 OA
BRANCH   3   5
ATOM      5  CA  ASN     4       0.818 -18.190   9.230  1.00  0.00     0.196 C 
BRANCH   5   6
ATOM      6  N   ASN     4       1.981 -17.665   8.484  1.00  0.00    -0.228 NA
ATOM      7  C   LEU     3       3.204 -17.586   9.003  1.00  0.00     0.274 C 
ATOM      8  O   LEU     3       3.513 -17.943  10.144  1.00  0.00    -0.268 OA
BRANCH   7   9
ATOM      9  CA  LEU     3       4.277 -17.064   8.047  1.00  0.00     0.186 C 
BRANCH   9  10
ATOM     10  N   LEU     3       5.598 -17.598   8.446  1.00  0.00    -0.229 NA
ATOM     11  C   GLY     2       6.684 -16.830   8.568  1.00  0.00     0.277 C 
ATOM     12  O   GLY     2       6.650 -15.609   8.513  1.00  0.00    -0.268 OA
BRANCH  11  13
ATOM     13  CA  GLY     2       7.988 -17.558   8.956  1.00  0.00     0.218 C 
BRANCH  13  14
ATOM     14  N   GLY     2       8.798 -18.165   7.873  1.00  0.00    -0.226 NA
ATOM     15  C   GLU     1       9.692 -17.457   7.173  1.00  0.00     0.289 C 
ATOM     16  O   GLU     1       9.999 -16.324   7.506  1.00  0.00    -0.268 OA
BRANCH  15  17
ATOM     17  CA  GLU     1      10.405 -18.134   5.972  1.00  0.00     0.381 C 
ATOM     18  N   GLU     1      10.924 -19.480   6.274  1.00  0.00     0.626 N 
BRANCH  17  19
ATOM     19  CB  GLU     1       9.431 -18.164   4.776  1.00  0.00     0.060 C 
BRANCH  19  20
ATOM     20  CG  GLU     1       9.403 -16.981   3.797  1.00  0.00     0.100 C 
BRANCH  20  21
ATOM     21  CD  GLU     1       9.535 -17.418   2.331  1.00  0.00     0.185 C 
ATOM     22  OE1 GLU     1       8.565 -17.981   1.792  1.00  0.00    -0.647 OA
ATOM     23  OE2 GLU     1      10.616 -17.221   1.749  1.00  0.00    -0.647 OA
ENDBRANCH  20  21
ENDBRANCH  19  20
ENDBRANCH  17  19
ENDBRANCH  15  17
ENDBRANCH  13  14
ENDBRANCH  11  13
ENDBRANCH   9  10
BRANCH   9  24
ATOM     24  CB  LEU     3       3.926 -17.509   6.622  1.00  0.00     0.034 C 
BRANCH  24  25
ATOM     25  CG  LEU     3       4.078 -16.397   5.568  1.00  0.00     0.002 C 
ATOM     26  CD1 LEU     3       3.933 -15.034   6.243  1.00  0.00     0.000 C 
ATOM     27  CD2 LEU     3       5.432 -16.489   4.857  1.00  0.00     0.000 C 
ENDBRANCH  24  25
ENDBRANCH   9  24
ENDBRANCH   7   9
ENDBRANCH   5   6
BRANCH   5  28
ATOM     28  CB  ASN     4      -0.444 -17.381   8.885  1.00  0.00     0.126 C 
BRANCH  28  29
ATOM     29  CG  ASN     4      -0.769 -16.275   9.908  1.00  0.00     0.276 C 
ATOM     30  ND2 ASN     4      -2.006 -16.215  10.324  1.00  0.00    -0.107 N 
ATOM     31  OD1 ASN     4       0.061 -15.521  10.378  1.00  0.00    -0.269 OA
ENDBRANCH  28  29
ENDBRANCH   5  28
ENDBRANCH   3   5
ENDBRANCH   1   2
BRANCH   1  32
ATOM     32  CB  ARG     5      -1.476 -22.124   9.765  1.00  0.00     0.036 C 
BRANCH  32  33
ATOM     33  CG  ARG     5      -0.633 -23.383   9.970  1.00  0.00     0.029 C 
BRANCH  33  34
ATOM     34  CD  ARG     5      -0.852 -24.336   8.798  1.00  0.00     0.145 C 
BRANCH  34  35
ATOM     35  NE  ARG     5       0.378 -25.094   8.463  1.00  0.00    -0.083 NA
ATOM     36  CZ  ARG     5       1.276 -24.724   7.537  1.00  0.00     0.782 C 
ATOM     37  NH2 ARG     5       2.477 -25.320   7.459  1.00  0.00     0.063 N 
ATOM     38  NH1 ARG     5       1.065 -23.680   6.750  1.00  0.00     0.063 N 
ENDBRANCH  34  35
ENDBRANCH  33  34
ENDBRANCH  32  33
ENDBRANCH   1  32
BRANCH   1  39
ATOM     39  C   ARG     5      -2.434 -21.261   7.612  1.00  0.00     0.256 C 
ATOM     40  O   ARG     5      -2.573 -21.992   6.626  1.00  0.00    -0.270 OA
ATOM     41  N   PRO     6      -3.393 -20.435   8.043  1.00  0.00    -0.312 N 
ATOM     42  CA  PRO     6      -4.663 -20.188   7.323  1.00  0.00     0.165 C 
ATOM     43  CD  PRO     6      -3.420 -19.767   9.363  1.00  0.00     0.105 C 
ATOM     44  CB  PRO     6      -5.374 -19.110   8.143  1.00  0.00     0.034 C 
ATOM     45  CG  PRO     6      -4.887 -19.382   9.559  1.00  0.00     0.027 C 
BRANCH  42  46
ATOM     46  C   PRO     6      -4.408 -19.705   5.886  1.00  0.00     0.272 C 
ATOM     47  N   SER     7      -4.931 -20.378   4.871  1.00  0.00    -0.226 NA
ATOM     48  O   PRO     6      -3.637 -18.764   5.678  1.00  0.00    -0.269 OA
BRANCH  47  49
ATOM     49  CA  SER     7      -5.764 -21.603   4.953  1.00  0.00     0.219 C 
BRANCH  49  50
ATOM     50  C   SER     7      -5.259 -22.707   4.007  1.00  0.00     0.277 C 
ATOM     51  O   SER     7      -4.267 -22.498   3.316  1.00  0.00    -0.268 OA
ATOM     52  N   GLY     8      -5.800 -23.905   4.178  1.00  0.00    -0.226 NA
BRANCH  52  53
ATOM     53  CA  GLY     8      -5.576 -25.015   3.214  1.00  0.00     0.218 C 
BRANCH  53  54
ATOM     54  C   GLY     8      -4.481 -26.048   3.538  1.00  0.00     0.277 C 
ATOM     55  N   GLY     9      -3.808 -25.886   4.686  1.00  0.00    -0.226 NA
ATOM     56  O   GLY     8      -4.285 -26.989   2.787  1.00  0.00    -0.268 OA
BRANCH  55  57
ATOM     57  CA  GLY     9      -2.706 -26.777   5.106  1.00  0.00     0.218 C 
BRANCH  57  58
ATOM     58  C   GLY     9      -1.329 -26.095   4.928  1.00  0.00     0.277 C 
ATOM     59  O   GLY     9      -1.278 -24.943   4.517  1.00  0.00    -0.268 OA
ATOM     60  N   CYS    10      -0.194 -26.771   5.045  1.00  0.00    -0.228 NA
BRANCH  60  61
ATOM     61  CA  CYS    10      -0.019 -28.220   5.312  1.00  0.00     0.198 C 
BRANCH  61  62
ATOM     62  CB  CYS    10       0.377 -29.002   4.054  1.00  0.00     0.103 C 
ATOM     63  SG  CYS    10      -0.915 -29.332   2.808  1.00  0.00    -0.080 SA
ENDBRANCH  61  62
BRANCH  61  64
ATOM     64  C   CYS    10       1.083 -28.540   6.324  1.00  0.00     0.275 C 
ATOM     65  O   CYS    10       0.850 -28.416   7.525  1.00  0.00    -0.268 OA
ATOM     66  N   GLY    11       2.094 -29.225   5.815  1.00  0.00    -0.225 NA
BRANCH  66  67
ATOM     67  CA  GLY    11       3.468 -29.043   6.301  1.00  0.00     0.226 C 
BRANCH  67  68
ATOM     68  C   GLY    11       3.820 -30.372   6.990  1.00  0.00     0.211 C 
ATOM     69  O2  GLY    11       4.457 -30.272   8.061  1.00  0.00    -0.646 OA
ATOM     70  O1  GLY    11       3.145 -31.369   6.646  1.00  0.00    -0.646 OA
ENDBRANCH  67  68
ENDBRANCH  66  67
ENDBRANCH  61  64
ENDBRANCH  60  61
ENDBRANCH  57  58
ENDBRANCH  55  57
ENDBRANCH  53  54
ENDBRANCH  52  53
ENDBRANCH  49  50
BRANCH  49  71
ATOM     71  CB  SER     7      -7.223 -21.321   4.587  1.00  0.00     0.216 C 
ATOM     72  OG  SER     7      -7.341 -21.119   3.178  1.00  0.00    -0.218 OA
ENDBRANCH  49  71
ENDBRANCH  47  49
ENDBRANCH  42  46
ENDBRANCH   1  39
TORSDOF 33
ENDMDL
MODEL 7
REMARK VINA RESULT:      -4.2      5.823     15.674
REMARK WARNING: 32 MAX_TORS EXCEEDED!!!
REMARK  33 active torsions:
REMARK  status: ('A' for Active; 'I' for Inactive)
REMARK    1  A    between atoms: CA_2  and  C_8 
REMARK    2  A    between atoms: CA_2  and  CB_3 
REMARK    3  A    between atoms: CB_3  and  CG_4 
REMARK    4  A    between atoms: CG_4  and  CD_5 
REMARK       I    between atoms: C_8  and  N_10 
REMARK    5  A    between atoms: N_10  and  CA_11 
REMARK    6  A    between atoms: CA_11  and  C_12 
REMARK       I    between atoms: C_12  and  N_14 
REMARK    7  A    between atoms: N_14  and  CA_15 
REMARK    8  A    between atoms: CA_15  and  C_20 
REMARK    9  A    between atoms: CA_15  and  CB_16 
REMARK   10  A    between atoms: CB_16  and  CG_17 
REMARK       I    between atoms: C_20  and  N_22 
REMARK   11  A    between atoms: N_22  and  CA_23 
REMARK   12  A    between atoms: CA_23  and  CB_24 
REMARK   13  A    between atoms: CA_23  and  C_28 
REMARK   14  A    between atoms: CB_24  and  CG_25 
REMARK       I    between atoms: C_28  and  N_30 
REMARK   15  A    between atoms: N_30  and  CA_31 
REMARK   16  A    between atoms: CA_31  and  CB_32 
REMARK   17  A    between atoms: CA_31  and  C_39 
REMARK   18  A    between atoms: CB_32  and  CG_33 
REMARK   19  A    between atoms: CG_33  and  CD_34 
REMARK   20  A    between atoms: CD_34  and  NE_35 
REMARK       I    between atoms: C_39  and  N_41 
REMARK   21  A    between atoms: CA_42  and  C_46 
REMARK       I    between atoms: C_46  and  N_48 
REMARK   22  A    between atoms: N_48  and  CA_49 
REMARK   23  A    between atoms: CA_49  and  C_52 
REMARK   24  A    between atoms: CA_49  and  CB_50 
REMARK       I    between atoms: C_52  and  N_54 
REMARK   25  A    between atoms: N_54  and  CA_55 
REMARK   26  A    between atoms: CA_55  and  C_56 
REMARK       I    between atoms: C_56  and  N_58 
REMARK   27  A    between atoms: N_58  and  CA_59 
REMARK   28  A    between atoms: CA_59  and  C_60 
REMARK       I    between atoms: C_60  and  N_62 
REMARK   29  A    between atoms: N_62  and  CA_63 
REMARK   30  A    between atoms: CA_63  and  CB_64 
REMARK   31  A    between atoms: CA_63  and  C_66 
REMARK       I    between atoms: C_66  and  N_68 
REMARK   32  A    between atoms: N_68  and  CA_69 
REMARK   33  A    between atoms: CA_69  and  C_70 
ROOT
ATOM      1  CA  ARG     5       5.245 -18.271   8.510  1.00  0.00     0.185 C 
ENDROOT
BRANCH   1   2
ATOM      2  N   ARG     5       3.773 -18.344   8.543  1.00  0.00    -0.229 NA
ATOM      3  C   ASN     4       2.951 -17.310   8.631  1.00  0.00     0.275 C 
ATOM      4  O   ASN     4       3.298 -16.178   8.949  1.00  0.00    -0.268 OA
BRANCH   3   5
ATOM      5  CA  ASN     4       1.466 -17.729   8.627  1.00  0.00     0.196 C 
BRANCH   5   6
ATOM      6  N   ASN     4       1.338 -19.201   8.663  1.00  0.00    -0.228 NA
ATOM      7  C   LEU     3       0.261 -19.850   8.228  1.00  0.00     0.274 C 
ATOM      8  O   LEU     3      -0.740 -19.314   7.743  1.00  0.00    -0.268 OA
BRANCH   7   9
ATOM      9  CA  LEU     3       0.352 -21.374   8.303  1.00  0.00     0.186 C 
BRANCH   9  10
ATOM     10  N   LEU     3      -0.045 -21.959   7.003  1.00  0.00    -0.229 NA
ATOM     11  C   GLY     2      -1.303 -22.312   6.721  1.00  0.00     0.277 C 
ATOM     12  O   GLY     2      -2.252 -22.043   7.443  1.00  0.00    -0.268 OA
BRANCH  11  13
ATOM     13  CA  GLY     2      -1.533 -22.942   5.331  1.00  0.00     0.218 C 
BRANCH  13  14
ATOM     14  N   GLY     2      -2.894 -22.865   4.746  1.00  0.00    -0.226 NA
ATOM     15  C   GLU     1      -3.129 -23.139   3.458  1.00  0.00     0.289 C 
ATOM     16  O   GLU     1      -2.263 -23.625   2.749  1.00  0.00    -0.268 OA
BRANCH  15  17
ATOM     17  CA  GLU     1      -4.557 -22.911   2.895  1.00  0.00     0.381 C 
ATOM     18  N   GLU     1      -5.507 -23.984   3.238  1.00  0.00     0.626 N 
BRANCH  17  19
ATOM     19  CB  GLU     1      -5.063 -21.537   3.382  1.00  0.00     0.060 C 
BRANCH  19  20
ATOM     20  CG  GLU     1      -6.507 -21.402   3.887  1.00  0.00     0.100 C 
BRANCH  20  21
ATOM     21  CD  GLU     1      -6.588 -21.132   5.397  1.00  0.00     0.185 C 
ATOM     22  OE1 GLU     1      -7.305 -20.195   5.792  1.00  0.00    -0.647 OA
ATOM     23  OE2 GLU     1      -5.909 -21.839   6.162  1.00  0.00    -0.647 OA
ENDBRANCH  20  21
ENDBRANCH  19  20
ENDBRANCH  17  19
ENDBRANCH  15  17
ENDBRANCH  13  14
ENDBRANCH  11  13
ENDBRANCH   9  10
BRANCH   9  24
ATOM     24  CB  LEU     3       1.794 -21.765   8.649  1.00  0.00     0.034 C 
BRANCH  24  25
ATOM     25  CG  LEU     3       1.904 -23.026   9.525  1.00  0.00     0.002 C 
ATOM     26  CD1 LEU     3       0.649 -23.157  10.387  1.00  0.00     0.000 C 
ATOM     27  CD2 LEU     3       2.085 -24.283   8.667  1.00  0.00     0.000 C 
ENDBRANCH  24  25
ENDBRANCH   9  24
ENDBRANCH   7   9
ENDBRANCH   5   6
BRANCH   5  28
ATOM     28  CB  ASN     4       0.700 -17.101   9.805  1.00  0.00     0.126 C 
BRANCH  28  29
ATOM     29  CG  ASN     4      -0.419 -16.135   9.371  1.00  0.00     0.276 C 
ATOM     30  ND2 ASN     4      -0.038 -14.976   8.904  1.00  0.00    -0.107 N 
ATOM     31  OD1 ASN     4      -1.602 -16.419   9.382  1.00  0.00    -0.269 OA
ENDBRANCH  28  29
ENDBRANCH   5  28
ENDBRANCH   3   5
ENDBRANCH   1   2
BRANCH   1  32
ATOM     32  CB  ARG     5       5.839 -18.801   9.819  1.00  0.00     0.036 C 
BRANCH  32  33
ATOM     33  CG  ARG     5       6.958 -17.928  10.390  1.00  0.00     0.029 C 
BRANCH  33  34
ATOM     34  CD  ARG     5       7.826 -17.407   9.250  1.00  0.00     0.145 C 
BRANCH  34  35
ATOM     35  NE  ARG     5       8.518 -16.146   9.612  1.00  0.00    -0.083 NA
ATOM     36  CZ  ARG     5       7.964 -14.926   9.556  1.00  0.00     0.782 C 
ATOM     37  NH2 ARG     5       8.560 -13.866  10.126  1.00  0.00     0.063 N 
ATOM     38  NH1 ARG     5       6.754 -14.740   9.048  1.00  0.00     0.063 N 
ENDBRANCH  34  35
ENDBRANCH  33  34
ENDBRANCH  32  33
ENDBRANCH   1  32
BRANCH   1  39
ATOM     39  C   ARG     5       5.776 -19.104   7.328  1.00  0.00     0.256 C 
ATOM     40  O   ARG     5       5.817 -20.335   7.416  1.00  0.00    -0.270 OA
ATOM     41  N   PRO     6       6.079 -18.447   6.204  1.00  0.00    -0.312 N 
ATOM     42  CA  PRO     6       6.631 -19.087   4.990  1.00  0.00     0.165 C 
ATOM     43  CD  PRO     6       5.768 -17.027   5.931  1.00  0.00     0.105 C 
ATOM     44  CB  PRO     6       6.903 -17.931   4.026  1.00  0.00     0.034 C 
ATOM     45  CG  PRO     6       5.839 -16.912   4.407  1.00  0.00     0.027 C 
BRANCH  42  46
ATOM     46  C   PRO     6       7.925 -19.858   5.301  1.00  0.00     0.272 C 
ATOM     47  N   SER     7       9.063 -19.191   5.437  1.00  0.00    -0.226 NA
ATOM     48  O   PRO     6       7.920 -21.092   5.317  1.00  0.00    -0.269 OA
BRANCH  47  49
ATOM     49  CA  SER     7       9.254 -17.726   5.312  1.00  0.00     0.219 C 
BRANCH  49  50
ATOM     50  C   SER     7      10.162 -17.363   4.124  1.00  0.00     0.277 C 
ATOM     51  O   SER     7      10.924 -18.210   3.669  1.00  0.00    -0.268 OA
ATOM     52  N   GLY     8       9.888 -16.217   3.517  1.00  0.00    -0.226 NA
BRANCH  52  53
ATOM     53  CA  GLY     8      10.796 -15.629   2.497  1.00  0.00     0.218 C 
BRANCH  53  54
ATOM     54  C   GLY     8      11.341 -14.210   2.741  1.00  0.00     0.277 C 
ATOM     55  N   GLY     9      12.323 -14.079   3.645  1.00  0.00    -0.226 NA
ATOM     56  O   GLY     8      10.912 -13.269   2.094  1.00  0.00    -0.268 OA
BRANCH  55  57
ATOM     57  CA  GLY     9      12.914 -12.775   4.009  1.00  0.00     0.218 C 
BRANCH  57  58
ATOM     58  C   GLY     9      13.533 -12.810   5.427  1.00  0.00     0.277 C 
ATOM     59  O   GLY     9      12.830 -13.122   6.380  1.00  0.00    -0.268 OA
ATOM     60  N   CYS    10      14.754 -12.355   5.668  1.00  0.00    -0.228 NA
BRANCH  60  61
ATOM     61  CA  CYS    10      15.698 -11.726   4.712  1.00  0.00     0.198 C 
BRANCH  61  62
ATOM     62  CB  CYS    10      15.694 -10.196   4.808  1.00  0.00     0.103 C 
ATOM     63  SG  CYS    10      14.896  -9.432   6.261  1.00  0.00    -0.080 SA
ENDBRANCH  61  62
BRANCH  61  64
ATOM     64  C   CYS    10      17.161 -12.118   4.929  1.00  0.00     0.275 C 
ATOM     65  O   CYS    10      17.475 -13.307   4.903  1.00  0.00    -0.268 OA
ATOM     66  N   GLY    11      18.008 -11.108   4.815  1.00  0.00    -0.225 NA
BRANCH  66  67
ATOM     67  CA  GLY    11      19.239 -11.043   5.615  1.00  0.00     0.226 C 
BRANCH  67  68
ATOM     68  C   GLY    11      19.202  -9.658   6.280  1.00  0.00     0.211 C 
ATOM     69  O2  GLY    11      18.996  -8.695   5.509  1.00  0.00    -0.646 OA
ATOM     70  O1  GLY    11      19.005  -9.644   7.517  1.00  0.00    -0.646 OA
ENDBRANCH  67  68
ENDBRANCH  66  67
ENDBRANCH  61  64
ENDBRANCH  60  61
ENDBRANCH  57  58
ENDBRANCH  55  57
ENDBRANCH  53  54
ENDBRANCH  52  53
ENDBRANCH  49  50
BRANCH  49  71
ATOM     71  CB  SER     7       9.888 -17.128   6.570  1.00  0.00     0.216 C 
ATOM     72  OG  SER     7      11.231 -16.728   6.294  1.00  0.00    -0.218 OA
ENDBRANCH  49  71
ENDBRANCH  47  49
ENDBRANCH  42  46
ENDBRANCH   1  39
TORSDOF 33
ENDMDL
MODEL 8
REMARK VINA RESULT:      -4.0      3.393      6.363
REMARK WARNING: 32 MAX_TORS EXCEEDED!!!
REMARK  33 active torsions:
REMARK  status: ('A' for Active; 'I' for Inactive)
REMARK    1  A    between atoms: CA_2  and  C_8 
REMARK    2  A    between atoms: CA_2  and  CB_3 
REMARK    3  A    between atoms: CB_3  and  CG_4 
REMARK    4  A    between atoms: CG_4  and  CD_5 
REMARK       I    between atoms: C_8  and  N_10 
REMARK    5  A    between atoms: N_10  and  CA_11 
REMARK    6  A    between atoms: CA_11  and  C_12 
REMARK       I    between atoms: C_12  and  N_14 
REMARK    7  A    between atoms: N_14  and  CA_15 
REMARK    8  A    between atoms: CA_15  and  C_20 
REMARK    9  A    between atoms: CA_15  and  CB_16 
REMARK   10  A    between atoms: CB_16  and  CG_17 
REMARK       I    between atoms: C_20  and  N_22 
REMARK   11  A    between atoms: N_22  and  CA_23 
REMARK   12  A    between atoms: CA_23  and  CB_24 
REMARK   13  A    between atoms: CA_23  and  C_28 
REMARK   14  A    between atoms: CB_24  and  CG_25 
REMARK       I    between atoms: C_28  and  N_30 
REMARK   15  A    between atoms: N_30  and  CA_31 
REMARK   16  A    between atoms: CA_31  and  CB_32 
REMARK   17  A    between atoms: CA_31  and  C_39 
REMARK   18  A    between atoms: CB_32  and  CG_33 
REMARK   19  A    between atoms: CG_33  and  CD_34 
REMARK   20  A    between atoms: CD_34  and  NE_35 
REMARK       I    between atoms: C_39  and  N_41 
REMARK   21  A    between atoms: CA_42  and  C_46 
REMARK       I    between atoms: C_46  and  N_48 
REMARK   22  A    between atoms: N_48  and  CA_49 
REMARK   23  A    between atoms: CA_49  and  C_52 
REMARK   24  A    between atoms: CA_49  and  CB_50 
REMARK       I    between atoms: C_52  and  N_54 
REMARK   25  A    between atoms: N_54  and  CA_55 
REMARK   26  A    between atoms: CA_55  and  C_56 
REMARK       I    between atoms: C_56  and  N_58 
REMARK   27  A    between atoms: N_58  and  CA_59 
REMARK   28  A    between atoms: CA_59  and  C_60 
REMARK       I    between atoms: C_60  and  N_62 
REMARK   29  A    between atoms: N_62  and  CA_63 
REMARK   30  A    between atoms: CA_63  and  CB_64 
REMARK   31  A    between atoms: CA_63  and  C_66 
REMARK       I    between atoms: C_66  and  N_68 
REMARK   32  A    between atoms: N_68  and  CA_69 
REMARK   33  A    between atoms: CA_69  and  C_70 
ROOT
ATOM      1  CA  ARG     5       2.392 -23.919   8.159  1.00  0.00     0.185 C 
ENDROOT
BRANCH   1   2
ATOM      2  N   ARG     5       2.296 -22.482   8.477  1.00  0.00    -0.229 NA
ATOM      3  C   ASN     4       3.309 -21.630   8.512  1.00  0.00     0.275 C 
ATOM      4  O   ASN     4       4.490 -21.962   8.532  1.00  0.00    -0.268 OA
BRANCH   3   5
ATOM      5  CA  ASN     4       2.867 -20.194   8.865  1.00  0.00     0.196 C 
BRANCH   5   6
ATOM      6  N   ASN     4       3.810 -19.204   8.303  1.00  0.00    -0.228 NA
ATOM      7  C   LEU     3       4.559 -18.402   9.055  1.00  0.00     0.274 C 
ATOM      8  O   LEU     3       4.564 -18.392  10.290  1.00  0.00    -0.268 OA
BRANCH   7   9
ATOM      9  CA  LEU     3       5.507 -17.490   8.278  1.00  0.00     0.186 C 
BRANCH   9  10
ATOM     10  N   LEU     3       5.803 -18.091   6.959  1.00  0.00    -0.229 NA
ATOM     11  C   GLY     2       7.025 -18.500   6.606  1.00  0.00     0.277 C 
ATOM     12  O   GLY     2       7.963 -18.558   7.387  1.00  0.00    -0.268 OA
BRANCH  11  13
ATOM     13  CA  GLY     2       7.162 -19.069   5.178  1.00  0.00     0.218 C 
BRANCH  13  14
ATOM     14  N   GLY     2       8.172 -18.461   4.278  1.00  0.00    -0.226 NA
ATOM     15  C   GLU     1       7.850 -17.521   3.382  1.00  0.00     0.289 C 
ATOM     16  O   GLU     1       6.745 -17.004   3.380  1.00  0.00    -0.268 OA
BRANCH  15  17
ATOM     17  CA  GLU     1       8.939 -17.031   2.391  1.00  0.00     0.381 C 
ATOM     18  N   GLU     1       8.444 -16.059   1.401  1.00  0.00     0.626 N 
BRANCH  17  19
ATOM     19  CB  GLU     1      10.116 -16.452   3.203  1.00  0.00     0.060 C 
BRANCH  19  20
ATOM     20  CG  GLU     1      11.557 -16.776   2.778  1.00  0.00     0.100 C 
BRANCH  20  21
ATOM     21  CD  GLU     1      11.932 -18.246   3.019  1.00  0.00     0.185 C 
ATOM     22  OE1 GLU     1      12.295 -18.931   2.046  1.00  0.00    -0.647 OA
ATOM     23  OE2 GLU     1      11.830 -18.701   4.172  1.00  0.00    -0.647 OA
ENDBRANCH  20  21
ENDBRANCH  19  20
ENDBRANCH  17  19
ENDBRANCH  15  17
ENDBRANCH  13  14
ENDBRANCH  11  13
ENDBRANCH   9  10
BRANCH   9  24
ATOM     24  CB  LEU     3       4.841 -16.119   8.107  1.00  0.00     0.034 C 
BRANCH  24  25
ATOM     25  CG  LEU     3       3.663 -16.119   7.116  1.00  0.00     0.002 C 
ATOM     26  CD1 LEU     3       2.395 -15.659   7.833  1.00  0.00     0.000 C 
ATOM     27  CD2 LEU     3       3.946 -15.209   5.916  1.00  0.00     0.000 C 
ENDBRANCH  24  25
ENDBRANCH   9  24
ENDBRANCH   7   9
ENDBRANCH   5   6
BRANCH   5  28
ATOM     28  CB  ASN     4       1.438 -19.907   8.373  1.00  0.00     0.126 C 
BRANCH  28  29
ATOM     29  CG  ASN     4       0.751 -18.743   9.113  1.00  0.00     0.276 C 
ATOM     30  ND2 ASN     4      -0.327 -18.258   8.556  1.00  0.00    -0.107 N 
ATOM     31  OD1 ASN     4       1.117 -18.314  10.190  1.00  0.00    -0.269 OA
ENDBRANCH  28  29
ENDBRANCH   5  28
ENDBRANCH   3   5
ENDBRANCH   1   2
BRANCH   1  32
ATOM     32  CB  ARG     5       2.259 -24.762   9.432  1.00  0.00     0.036 C 
BRANCH  32  33
ATOM     33  CG  ARG     5       3.554 -24.876  10.237  1.00  0.00     0.029 C 
BRANCH  33  34
ATOM     34  CD  ARG     5       4.657 -25.438   9.347  1.00  0.00     0.145 C 
BRANCH  34  35
ATOM     35  NE  ARG     5       5.483 -26.446  10.056  1.00  0.00    -0.083 NA
ATOM     36  CZ  ARG     5       5.730 -27.685   9.607  1.00  0.00     0.782 C 
ATOM     37  NH2 ARG     5       6.677 -28.452  10.173  1.00  0.00     0.063 N 
ATOM     38  NH1 ARG     5       5.144 -28.154   8.515  1.00  0.00     0.063 N 
ENDBRANCH  34  35
ENDBRANCH  33  34
ENDBRANCH  32  33
ENDBRANCH   1  32
BRANCH   1  39
ATOM     39  C   ARG     5       1.278 -24.302   7.167  1.00  0.00     0.256 C 
ATOM     40  O   ARG     5       0.382 -23.493   6.910  1.00  0.00    -0.270 OA
ATOM     41  N   PRO     6       1.394 -25.478   6.543  1.00  0.00    -0.312 N 
ATOM     42  CA  PRO     6       0.398 -26.014   5.588  1.00  0.00     0.165 C 
ATOM     43  CD  PRO     6       2.587 -26.353   6.575  1.00  0.00     0.105 C 
ATOM     44  CB  PRO     6       0.912 -27.409   5.228  1.00  0.00     0.034 C 
ATOM     45  CG  PRO     6       2.421 -27.260   5.355  1.00  0.00     0.027 C 
BRANCH  42  46
ATOM     46  C   PRO     6      -1.001 -26.092   6.221  1.00  0.00     0.272 C 
ATOM     47  N   SER     7      -2.065 -25.795   5.488  1.00  0.00    -0.226 NA
ATOM     48  O   PRO     6      -1.122 -26.325   7.428  1.00  0.00    -0.269 OA
BRANCH  47  49
ATOM     49  CA  SER     7      -2.073 -25.368   4.068  1.00  0.00     0.219 C 
BRANCH  49  50
ATOM     50  C   SER     7      -2.565 -23.919   3.905  1.00  0.00     0.277 C 
ATOM     51  O   SER     7      -2.348 -23.326   2.853  1.00  0.00    -0.268 OA
ATOM     52  N   GLY     8      -3.403 -23.486   4.836  1.00  0.00    -0.226 NA
BRANCH  52  53
ATOM     53  CA  GLY     8      -3.799 -22.056   4.936  1.00  0.00     0.218 C 
BRANCH  53  54
ATOM     54  C   GLY     8      -5.081 -21.605   4.213  1.00  0.00     0.277 C 
ATOM     55  N   GLY     9      -6.207 -21.553   4.938  1.00  0.00    -0.226 NA
ATOM     56  O   GLY     8      -5.037 -21.272   3.040  1.00  0.00    -0.268 OA
BRANCH  55  57
ATOM     57  CA  GLY     9      -7.517 -21.177   4.367  1.00  0.00     0.218 C 
BRANCH  57  58
ATOM     58  C   GLY     9      -8.338 -20.315   5.355  1.00  0.00     0.277 C 
ATOM     59  O   GLY     9      -7.808 -19.911   6.383  1.00  0.00    -0.268 OA
ATOM     60  N   CYS    10      -9.643 -20.137   5.210  1.00  0.00    -0.228 NA
BRANCH  60  61
ATOM     61  CA  CYS    10     -10.532 -20.714   4.172  1.00  0.00     0.198 C 
BRANCH  61  62
ATOM     62  CB  CYS    10     -11.067 -22.097   4.564  1.00  0.00     0.103 C 
ATOM     63  SG  CYS    10     -11.010 -22.568   6.327  1.00  0.00    -0.080 SA
ENDBRANCH  61  62
BRANCH  61  64
ATOM     64  C   CYS    10     -11.788 -19.886   3.893  1.00  0.00     0.275 C 
ATOM     65  O   CYS    10     -12.284 -19.906   2.768  1.00  0.00    -0.268 OA
ATOM     66  N   GLY    11     -12.406 -19.466   4.985  1.00  0.00    -0.225 NA
BRANCH  66  67
ATOM     67  CA  GLY    11     -13.118 -18.181   5.020  1.00  0.00     0.226 C 
BRANCH  67  68
ATOM     68  C   GLY    11     -12.018 -17.128   5.225  1.00  0.00     0.211 C 
ATOM     69  O2  GLY    11     -11.319 -17.271   6.252  1.00  0.00    -0.646 OA
ATOM     70  O1  GLY    11     -11.678 -16.478   4.209  1.00  0.00    -0.646 OA
ENDBRANCH  67  68
ENDBRANCH  66  67
ENDBRANCH  61  64
ENDBRANCH  60  61
ENDBRANCH  57  58
ENDBRANCH  55  57
ENDBRANCH  53  54
ENDBRANCH  52  53
ENDBRANCH  49  50
BRANCH  49  71
ATOM     71  CB  SER     7      -2.981 -26.256   3.215  1.00  0.00     0.216 C 
ATOM     72  OG  SER     7      -2.438 -26.387   1.900  1.00  0.00    -0.218 OA
ENDBRANCH  49  71
ENDBRANCH  47  49
ENDBRANCH  42  46
ENDBRANCH   1  39
TORSDOF 33
ENDMDL
MODEL 9
REMARK VINA RESULT:      -3.9     15.861     20.556
REMARK WARNING: 32 MAX_TORS EXCEEDED!!!
REMARK  33 active torsions:
REMARK  status: ('A' for Active; 'I' for Inactive)
REMARK    1  A    between atoms: CA_2  and  C_8 
REMARK    2  A    between atoms: CA_2  and  CB_3 
REMARK    3  A    between atoms: CB_3  and  CG_4 
REMARK    4  A    between atoms: CG_4  and  CD_5 
REMARK       I    between atoms: C_8  and  N_10 
REMARK    5  A    between atoms: N_10  and  CA_11 
REMARK    6  A    between atoms: CA_11  and  C_12 
REMARK       I    between atoms: C_12  and  N_14 
REMARK    7  A    between atoms: N_14  and  CA_15 
REMARK    8  A    between atoms: CA_15  and  C_20 
REMARK    9  A    between atoms: CA_15  and  CB_16 
REMARK   10  A    between atoms: CB_16  and  CG_17 
REMARK       I    between atoms: C_20  and  N_22 
REMARK   11  A    between atoms: N_22  and  CA_23 
REMARK   12  A    between atoms: CA_23  and  CB_24 
REMARK   13  A    between atoms: CA_23  and  C_28 
REMARK   14  A    between atoms: CB_24  and  CG_25 
REMARK       I    between atoms: C_28  and  N_30 
REMARK   15  A    between atoms: N_30  and  CA_31 
REMARK   16  A    between atoms: CA_31  and  CB_32 
REMARK   17  A    between atoms: CA_31  and  C_39 
REMARK   18  A    between atoms: CB_32  and  CG_33 
REMARK   19  A    between atoms: CG_33  and  CD_34 
REMARK   20  A    between atoms: CD_34  and  NE_35 
REMARK       I    between atoms: C_39  and  N_41 
REMARK   21  A    between atoms: CA_42  and  C_46 
REMARK       I    between atoms: C_46  and  N_48 
REMARK   22  A    between atoms: N_48  and  CA_49 
REMARK   23  A    between atoms: CA_49  and  C_52 
REMARK   24  A    between atoms: CA_49  and  CB_50 
REMARK       I    between atoms: C_52  and  N_54 
REMARK   25  A    between atoms: N_54  and  CA_55 
REMARK   26  A    between atoms: CA_55  and  C_56 
REMARK       I    between atoms: C_56  and  N_58 
REMARK   27  A    between atoms: N_58  and  CA_59 
REMARK   28  A    between atoms: CA_59  and  C_60 
REMARK       I    between atoms: C_60  and  N_62 
REMARK   29  A    between atoms: N_62  and  CA_63 
REMARK   30  A    between atoms: CA_63  and  CB_64 
REMARK   31  A    between atoms: CA_63  and  C_66 
REMARK       I    between atoms: C_66  and  N_68 
REMARK   32  A    between atoms: N_68  and  CA_69 
REMARK   33  A    between atoms: CA_69  and  C_70 
ROOT
ATOM      1  CA  ARG     5     -11.045  -3.286   7.937  1.00  0.00     0.185 C 
ENDROOT
BRANCH   1   2
ATOM      2  N   ARG     5     -11.859  -2.194   8.502  1.00  0.00    -0.229 NA
ATOM      3  C   ASN     4     -12.836  -2.336   9.384  1.00  0.00     0.275 C 
ATOM      4  O   ASN     4     -13.365  -3.408   9.660  1.00  0.00    -0.268 OA
BRANCH   3   5
ATOM      5  CA  ASN     4     -13.479  -0.991   9.782  1.00  0.00     0.196 C 
BRANCH   5   6
ATOM      6  N   ASN     4     -13.475  -0.052   8.640  1.00  0.00    -0.228 NA
ATOM      7  C   LEU     3     -13.054   1.206   8.733  1.00  0.00     0.274 C 
ATOM      8  O   LEU     3     -12.616   1.732   9.761  1.00  0.00    -0.268 OA
BRANCH   7   9
ATOM      9  CA  LEU     3     -13.081   1.994   7.424  1.00  0.00     0.186 C 
BRANCH   9  10
ATOM     10  N   LEU     3     -13.814   1.221   6.396  1.00  0.00    -0.229 NA
ATOM     11  C   GLY     2     -13.396   1.117   5.132  1.00  0.00     0.277 C 
ATOM     12  O   GLY     2     -12.304   1.514   4.753  1.00  0.00    -0.268 OA
BRANCH  11  13
ATOM     13  CA  GLY     2     -14.303   0.303   4.184  1.00  0.00     0.218 C 
BRANCH  13  14
ATOM     14  N   GLY     2     -13.997  -1.135   3.989  1.00  0.00    -0.226 NA
ATOM     15  C   GLU     1     -13.498  -1.604   2.840  1.00  0.00     0.289 C 
ATOM     16  O   GLU     1     -13.116  -0.847   1.962  1.00  0.00    -0.268 OA
BRANCH  15  17
ATOM     17  CA  GLU     1     -13.328  -3.138   2.671  1.00  0.00     0.381 C 
ATOM     18  N   GLU     1     -14.064  -3.692   1.522  1.00  0.00     0.626 N 
BRANCH  17  19
ATOM     19  CB  GLU     1     -11.821  -3.457   2.579  1.00  0.00     0.060 C 
BRANCH  19  20
ATOM     20  CG  GLU     1     -11.199  -4.450   3.572  1.00  0.00     0.100 C 
BRANCH  20  21
ATOM     21  CD  GLU     1     -10.693  -5.732   2.894  1.00  0.00     0.185 C 
ATOM     22  OE1 GLU     1     -11.460  -6.333   2.120  1.00  0.00    -0.647 OA
ATOM     23  OE2 GLU     1      -9.550  -6.136   3.170  1.00  0.00    -0.647 OA
ENDBRANCH  20  21
ENDBRANCH  19  20
ENDBRANCH  17  19
ENDBRANCH  15  17
ENDBRANCH  13  14
ENDBRANCH  11  13
ENDBRANCH   9  10
BRANCH   9  24
ATOM     24  CB  LEU     3     -13.768   3.342   7.673  1.00  0.00     0.034 C 
BRANCH  24  25
ATOM     25  CG  LEU     3     -15.261   3.223   8.027  1.00  0.00     0.002 C 
ATOM     26  CD1 LEU     3     -15.521   3.902   9.371  1.00  0.00     0.000 C 
ATOM     27  CD2 LEU     3     -16.140   3.855   6.942  1.00  0.00     0.000 C 
ENDBRANCH  24  25
ENDBRANCH   9  24
ENDBRANCH   7   9
ENDBRANCH   5   6
BRANCH   5  28
ATOM     28  CB  ASN     4     -14.913  -1.185  10.305  1.00  0.00     0.126 C 
BRANCH  28  29
ATOM     29  CG  ASN     4     -15.989  -1.108   9.205  1.00  0.00     0.276 C 
ATOM     30  ND2 ASN     4     -16.623   0.029   9.093  1.00  0.00    -0.107 N 
ATOM     31  OD1 ASN     4     -16.222  -2.007   8.419  1.00  0.00    -0.269 OA
ENDBRANCH  28  29
ENDBRANCH   5  28
ENDBRANCH   3   5
ENDBRANCH   1   2
BRANCH   1  32
ATOM     32  CB  ARG     5     -10.517  -2.902   6.551  1.00  0.00     0.036 C 
BRANCH  32  33
ATOM     33  CG  ARG     5     -10.844  -1.465   6.141  1.00  0.00     0.029 C 
BRANCH  33  34
ATOM     34  CD  ARG     5     -10.065  -1.108   4.879  1.00  0.00     0.145 C 
BRANCH  34  35
ATOM     35  NE  ARG     5      -8.638  -1.500   4.978  1.00  0.00    -0.083 NA
ATOM     36  CZ  ARG     5      -7.898  -1.959   3.958  1.00  0.00     0.782 C 
ATOM     37  NH2 ARG     5      -6.563  -2.059   4.059  1.00  0.00     0.063 N 
ATOM     38  NH1 ARG     5      -8.437  -2.212   2.773  1.00  0.00     0.063 N 
ENDBRANCH  34  35
ENDBRANCH  33  34
ENDBRANCH  32  33
ENDBRANCH   1  32
BRANCH   1  39
ATOM     39  C   ARG     5      -9.861  -3.584   8.875  1.00  0.00     0.256 C 
ATOM     40  O   ARG     5      -9.154  -2.658   9.284  1.00  0.00    -0.270 OA
ATOM     41  N   PRO     6      -9.713  -4.846   9.291  1.00  0.00    -0.312 N 
ATOM     42  CA  PRO     6      -8.612  -5.310  10.165  1.00  0.00     0.165 C 
ATOM     43  CD  PRO     6     -10.692  -5.936   9.088  1.00  0.00     0.105 C 
ATOM     44  CB  PRO     6      -8.810  -6.822  10.276  1.00  0.00     0.034 C 
ATOM     45  CG  PRO     6     -10.318  -6.979  10.143  1.00  0.00     0.027 C 
BRANCH  42  46
ATOM     46  C   PRO     6      -7.237  -4.980   9.559  1.00  0.00     0.272 C 
ATOM     47  N   SER     7      -6.844  -5.607   8.458  1.00  0.00    -0.226 NA
ATOM     48  O   PRO     6      -6.467  -4.219  10.152  1.00  0.00    -0.269 OA
BRANCH  47  49
ATOM     49  CA  SER     7      -7.597  -6.641   7.709  1.00  0.00     0.219 C 
BRANCH  49  50
ATOM     50  C   SER     7      -6.693  -7.808   7.274  1.00  0.00     0.277 C 
ATOM     51  O   SER     7      -5.488  -7.750   7.494  1.00  0.00    -0.268 OA
ATOM     52  N   GLY     8      -7.321  -8.914   6.896  1.00  0.00    -0.226 NA
BRANCH  52  53
ATOM     53  CA  GLY     8      -6.603 -10.046   6.253  1.00  0.00     0.218 C 
BRANCH  53  54
ATOM     54  C   GLY     8      -6.352 -11.315   7.087  1.00  0.00     0.277 C 
ATOM     55  N   GLY     9      -7.225 -12.323   6.946  1.00  0.00    -0.226 NA
ATOM     56  O   GLY     8      -5.369 -11.392   7.806  1.00  0.00    -0.268 OA
BRANCH  55  57
ATOM     57  CA  GLY     9      -7.132 -13.583   7.711  1.00  0.00     0.218 C 
BRANCH  57  58
ATOM     58  C   GLY     9      -7.126 -14.815   6.775  1.00  0.00     0.277 C 
ATOM     59  O   GLY     9      -7.657 -14.734   5.674  1.00  0.00    -0.268 OA
ATOM     60  N   CYS    10      -6.713 -16.004   7.188  1.00  0.00    -0.228 NA
BRANCH  60  61
ATOM     61  CA  CYS    10      -6.244 -16.387   8.541  1.00  0.00     0.198 C 
BRANCH  61  62
ATOM     62  CB  CYS    10      -7.315 -17.136   9.342  1.00  0.00     0.103 C 
ATOM     63  SG  CYS    10      -8.812 -17.693   8.457  1.00  0.00    -0.080 SA
ENDBRANCH  61  62
BRANCH  61  64
ATOM     64  C   CYS    10      -5.039 -17.331   8.541  1.00  0.00     0.275 C 
ATOM     65  O   CYS    10      -4.008 -16.990   9.116  1.00  0.00    -0.268 OA
ATOM     66  N   GLY    11      -5.332 -18.571   8.183  1.00  0.00    -0.225 NA
BRANCH  66  67
ATOM     67  CA  GLY    11      -4.369 -19.408   7.453  1.00  0.00     0.226 C 
BRANCH  67  68
ATOM     68  C   GLY    11      -5.175 -20.013   6.293  1.00  0.00     0.211 C 
ATOM     69  O2  GLY    11      -4.635 -19.944   5.167  1.00  0.00    -0.646 OA
ATOM     70  O1  GLY    11      -6.075 -20.824   6.609  1.00  0.00    -0.646 OA
ENDBRANCH  67  68
ENDBRANCH  66  67
ENDBRANCH  61  64
ENDBRANCH  60  61
ENDBRANCH  57  58
ENDBRANCH  55  57
ENDBRANCH  53  54
ENDBRANCH  52  53
ENDBRANCH  49  50
BRANCH  49  71
ATOM     71  CB  SER     7      -8.241  -6.068   6.445  1.00  0.00     0.216 C 
ATOM     72  OG  SER     7      -7.605  -4.840   6.089  1.00  0.00    -0.218 OA
ENDBRANCH  49  71
ENDBRANCH  47  49
ENDBRANCH  42  46
ENDBRANCH   1  39
TORSDOF 33
ENDMDL
