MODEL 1
REMARK VINA RESULT:      -1.4      0.000      0.000
REMARK  28 active torsions:
REMARK  status: ('A' for Active; 'I' for Inactive)
REMARK       I    between atoms: C_1  and  N_3 
REMARK    1  A    between atoms: C_1  and  C_41 
REMARK    2  A    between atoms: N_3  and  C_5 
REMARK    3  A    between atoms: C_5  and  C_6 
REMARK    4  A    between atoms: C_5  and  C_18 
REMARK       I    between atoms: C_18  and  N_19 
REMARK    5  A    between atoms: C_20  and  C_25 
REMARK       I    between atoms: C_25  and  N_26 
REMARK    6  A    between atoms: N_26  and  C_29 
REMARK    7  A    between atoms: C_29  and  C_30 
REMARK    8  A    between atoms: C_29  and  C_38 
REMARK       I    between atoms: C_30  and  N_31 
REMARK    9  A    between atoms: N_31  and  C_34 
REMARK   10  A    between atoms: C_34  and  C_35 
REMARK   11  A    between atoms: C_38  and  O_39 
REMARK   12  A    between atoms: C_6  and  C_7 
REMARK   13  A    between atoms: C_7  and  C_8 
REMARK   14  A    between atoms: C_8  and  N_9 
REMARK       I    between atoms: N_9  and  C_10 
REMARK       I    between atoms: C_10  and  N_12 
REMARK   15  A    between atoms: C_41  and  C_42 
REMARK   16  A    between atoms: C_41  and  N_48 
REMARK       I    between atoms: N_48  and  C_50 
REMARK   17  A    between atoms: C_50  and  C_52 
REMARK   18  A    between atoms: C_52  and  N_53 
REMARK   19  A    between atoms: C_52  and  C_72 
REMARK       I    between atoms: N_53  and  C_55 
REMARK   20  A    between atoms: C_55  and  C_57 
REMARK   21  A    between atoms: C_57  and  N_58 
REMARK       I    between atoms: N_58  and  C_60 
REMARK   22  A    between atoms: C_60  and  C_62 
REMARK   23  A    between atoms: C_62  and  N_63 
REMARK   24  A    between atoms: C_62  and  C_67 
REMARK   25  A    between atoms: C_67  and  C_68 
REMARK   26  A    between atoms: C_68  and  C_69 
REMARK   27  A    between atoms: C_72  and  C_73 
REMARK   28  A    between atoms: C_42  and  C_43 
REMARK       I    between atoms: C_43  and  N_44 
ROOT
HETATM    1  C           0      15.185   9.402   2.379  0.00  0.00     0.241 C 
HETATM    2  O           0      15.232   9.169   1.166  0.00  0.00    -0.271 OA
HETATM    3  N           0      15.574   8.486   3.297  0.00  0.00    -0.346 N 
HETATM    4  H           0      15.487   8.702   4.283  0.00  0.00     0.163 HD
ENDROOT
BRANCH   3   5
HETATM    5  C           0      16.243   7.258   2.874  0.00  0.00     0.176 C 
BRANCH   5   6
HETATM    6  C           0      15.260   6.270   2.225  0.00  0.00     0.036 C 
BRANCH   6   7
HETATM    7  C           0      14.902   5.136   3.192  0.00  0.00     0.023 C 
BRANCH   7   8
HETATM    8  C           0      14.831   3.755   2.540  0.00  0.00     0.138 C 
BRANCH   8   9
HETATM    9  N           0      13.548   3.163   2.906  0.00  0.00    -0.227 N 
HETATM   10  C           0      13.288   1.871   3.084  0.00  0.00     0.665 C 
HETATM   11  N           0      14.219   0.929   2.877  0.00  0.00    -0.235 N 
HETATM   12  N           0      12.052   1.534   3.495  0.00  0.00    -0.235 N 
HETATM   13  H           0      14.053  -0.027   3.152  0.00  0.00     0.174 HD
HETATM   14  H           0      15.167   1.183   2.646  0.00  0.00     0.174 HD
HETATM   15  H           0      11.731   0.582   3.412  0.00  0.00     0.174 HD
HETATM   16  H           0      11.365   2.291   3.502  0.00  0.00     0.174 HD
HETATM   17  H           0      12.724   3.776   3.028  0.00  0.00     0.177 HD
ENDBRANCH   8   9
ENDBRANCH   7   8
ENDBRANCH   6   7
ENDBRANCH   5   6
BRANCH   5  18
HETATM   18  C           0      17.534   7.458   2.049  0.00  0.00     0.243 C 
HETATM   19  N           0      18.552   8.218   2.534  0.00  0.00    -0.337 N 
HETATM   20  C           0      19.818   8.291   1.784  0.00  0.00     0.179 C 
HETATM   21  C           0      18.451   9.344   3.487  0.00  0.00     0.127 C 
HETATM   22  C           0      20.408   9.685   2.137  0.00  0.00     0.037 C 
HETATM   23  C           0      19.236  10.449   2.773  0.00  0.00     0.022 C 
HETATM   24  O           0      17.621   6.849   0.978  0.00  0.00    -0.271 OA
BRANCH  20  25
HETATM   25  C           0      20.831   7.180   2.111  0.00  0.00     0.241 C 
HETATM   26  N           0      21.442   6.553   1.074  0.00  0.00    -0.344 N 
HETATM   27  H           0      21.230   6.832   0.120  0.00  0.00     0.163 HD
HETATM   28  O           0      21.037   6.892   3.293  0.00  0.00    -0.271 OA
BRANCH  26  29
HETATM   29  C           0      22.270   5.372   1.271  0.00  0.00     0.200 C 
BRANCH  29  30
HETATM   30  C           0      21.732   4.335   2.277  0.00  0.00     0.242 C 
HETATM   31  N           0      20.422   4.053   2.250  0.00  0.00    -0.354 N 
HETATM   32  H           0      19.784   4.454   1.566  0.00  0.00     0.162 HD
HETATM   33  O           0      22.527   3.808   3.071  0.00  0.00    -0.271 OA
BRANCH  31  34
HETATM   34  C           0      19.799   3.063   3.108  0.00  0.00     0.203 C 
BRANCH  34  35
HETATM   35  C           0      18.391   2.684   2.565  0.00  0.00     0.307 C 
HETATM   36  O           0      18.080   3.162   1.441  0.00  0.00    -0.186 OA
HETATM   37  O           0      17.716   1.935   3.311  0.00  0.00    -0.186 OA
ENDBRANCH  34  35
ENDBRANCH  31  34
ENDBRANCH  29  30
BRANCH  29  38
HETATM   38  C           0      23.711   5.764   1.661  0.00  0.00     0.199 C 
BRANCH  38  39
HETATM   39  O           0      23.755   6.770   2.656  0.00  0.00    -0.398 OA
HETATM   40  H           0      23.480   6.399   3.512  0.00  0.00     0.209 HD
ENDBRANCH  38  39
ENDBRANCH  29  38
ENDBRANCH  26  29
ENDBRANCH  20  25
ENDBRANCH   5  18
ENDBRANCH   3   5
BRANCH   1  41
HETATM   41  C           0      14.723  10.775   2.912  0.00  0.00     0.185 C 
BRANCH  41  42
HETATM   42  C           0      13.257  10.762   3.385  0.00  0.00     0.137 C 
BRANCH  42  43
HETATM   43  C           0      12.237  10.408   2.304  0.00  0.00     0.217 C 
HETATM   44  N           0      11.284  11.347   2.116  0.00  0.00    -0.370 N 
HETATM   45  H           0      10.526  11.118   1.488  0.00  0.00     0.159 HD
HETATM   46  H           0      11.213  12.190   2.699  0.00  0.00     0.159 HD
HETATM   47  O           0      12.276   9.336   1.694  0.00  0.00    -0.274 OA
ENDBRANCH  42  43
ENDBRANCH  41  42
BRANCH  41  48
HETATM   48  N           0      14.844  11.824   1.906  0.00  0.00    -0.346 N 
HETATM   49  H           0      14.809  11.557   0.930  0.00  0.00     0.163 HD
HETATM   50  C           0      15.095  13.117   2.198  0.00  0.00     0.241 C 
HETATM   51  O           0      15.271  13.530   3.351  0.00  0.00    -0.271 OA
BRANCH  50  52
HETATM   52  C           0      15.127  14.097   1.010  0.00  0.00     0.177 C 
BRANCH  52  53
HETATM   53  N           0      14.071  15.102   1.090  0.00  0.00    -0.346 N 
HETATM   54  H           0      14.330  16.081   1.107  0.00  0.00     0.163 HD
HETATM   55  C           0      12.755  14.770   1.016  0.00  0.00     0.236 C 
HETATM   56  O           0      12.363  13.614   0.877  0.00  0.00    -0.272 OA
BRANCH  55  57
HETATM   57  C           0      11.750  15.928   1.088  0.00  0.00     0.225 C 
BRANCH  57  58
HETATM   58  N           0      12.360  17.239   1.299  0.00  0.00    -0.351 N 
HETATM   59  H           0      13.251  17.410   0.856  0.00  0.00     0.163 HD
HETATM   60  C           0      11.612  18.246   1.808  0.00  0.00     0.248 C 
HETATM   61  O           0      10.450  18.061   2.184  0.00  0.00    -0.271 OA
BRANCH  60  62
HETATM   62  C           0      12.202  19.653   1.964  0.00  0.00     0.275 C 
BRANCH  62  63
HETATM   63  N           0      11.477  20.491   3.003  0.00  0.00    -0.066 N 
HETATM   64  H           0      11.250  21.432   2.661  0.00  0.00     0.275 HD
HETATM   65  H           0      10.613  20.063   3.351  0.00  0.00     0.275 HD
HETATM   66  H           0      12.081  20.615   3.822  0.00  0.00     0.275 HD
ENDBRANCH  62  63
BRANCH  62  67
HETATM   67  C           0      13.711  19.689   2.259  0.00  0.00     0.053 C 
BRANCH  67  68
HETATM   68  C           0      14.564  20.270   1.125  0.00  0.00     0.115 C 
BRANCH  68  69
HETATM   69  C           0      15.673  21.263   1.528  0.00  0.00     0.172 C 
HETATM   70  O           0      16.872  20.966   1.286  0.00  0.00    -0.648 OA
HETATM   71  O           0      15.282  22.326   2.109  0.00  0.00    -0.648 OA
ENDBRANCH  68  69
ENDBRANCH  67  68
ENDBRANCH  62  67
ENDBRANCH  60  62
ENDBRANCH  57  58
ENDBRANCH  55  57
ENDBRANCH  52  53
BRANCH  52  72
HETATM   72  C           0      16.494  14.810   0.894  0.00  0.00     0.038 C 
BRANCH  72  73
HETATM   73  C           0      16.744  16.000   1.840  0.00  0.00    -0.020 C 
HETATM   74  C           0      17.813  15.695   2.899  0.00  0.00     0.009 C 
HETATM   75  C           0      17.133  17.232   1.008  0.00  0.00     0.009 C 
ENDBRANCH  72  73
ENDBRANCH  52  72
ENDBRANCH  50  52
ENDBRANCH  41  48
ENDBRANCH   1  41
TORSDOF 28
ENDMDL
MODEL 2
REMARK VINA RESULT:      -1.2     32.120     40.736
REMARK  28 active torsions:
REMARK  status: ('A' for Active; 'I' for Inactive)
REMARK       I    between atoms: C_1  and  N_3 
REMARK    1  A    between atoms: C_1  and  C_41 
REMARK    2  A    between atoms: N_3  and  C_5 
REMARK    3  A    between atoms: C_5  and  C_6 
REMARK    4  A    between atoms: C_5  and  C_18 
REMARK       I    between atoms: C_18  and  N_19 
REMARK    5  A    between atoms: C_20  and  C_25 
REMARK       I    between atoms: C_25  and  N_26 
REMARK    6  A    between atoms: N_26  and  C_29 
REMARK    7  A    between atoms: C_29  and  C_30 
REMARK    8  A    between atoms: C_29  and  C_38 
REMARK       I    between atoms: C_30  and  N_31 
REMARK    9  A    between atoms: N_31  and  C_34 
REMARK   10  A    between atoms: C_34  and  C_35 
REMARK   11  A    between atoms: C_38  and  O_39 
REMARK   12  A    between atoms: C_6  and  C_7 
REMARK   13  A    between atoms: C_7  and  C_8 
REMARK   14  A    between atoms: C_8  and  N_9 
REMARK       I    between atoms: N_9  and  C_10 
REMARK       I    between atoms: C_10  and  N_12 
REMARK   15  A    between atoms: C_41  and  C_42 
REMARK   16  A    between atoms: C_41  and  N_48 
REMARK       I    between atoms: N_48  and  C_50 
REMARK   17  A    between atoms: C_50  and  C_52 
REMARK   18  A    between atoms: C_52  and  N_53 
REMARK   19  A    between atoms: C_52  and  C_72 
REMARK       I    between atoms: N_53  and  C_55 
REMARK   20  A    between atoms: C_55  and  C_57 
REMARK   21  A    between atoms: C_57  and  N_58 
REMARK       I    between atoms: N_58  and  C_60 
REMARK   22  A    between atoms: C_60  and  C_62 
REMARK   23  A    between atoms: C_62  and  N_63 
REMARK   24  A    between atoms: C_62  and  C_67 
REMARK   25  A    between atoms: C_67  and  C_68 
REMARK   26  A    between atoms: C_68  and  C_69 
REMARK   27  A    between atoms: C_72  and  C_73 
REMARK   28  A    between atoms: C_42  and  C_43 
REMARK       I    between atoms: C_43  and  N_44 
ROOT
HETATM    1  C           0      10.559 -30.176   1.856  0.00  0.00     0.241 C 
HETATM    2  O           0      11.225 -30.524   0.874  0.00  0.00    -0.271 OA
HETATM    3  N           0       9.795 -31.055   2.547  0.00  0.00    -0.346 N 
HETATM    4  H           0       9.236 -30.723   3.324  0.00  0.00     0.163 HD
ENDROOT
BRANCH   3   5
HETATM    5  C           0       9.884 -32.487   2.268  0.00  0.00     0.176 C 
BRANCH   5   6
HETATM    6  C           0      10.367 -33.275   3.497  0.00  0.00     0.036 C 
BRANCH   6   7
HETATM    7  C           0      11.743 -33.900   3.242  0.00  0.00     0.023 C 
BRANCH   7   8
HETATM    8  C           0      12.273 -33.692   1.823  0.00  0.00     0.138 C 
BRANCH   8   9
HETATM    9  N           0      13.725 -33.561   1.912  0.00  0.00    -0.227 N 
HETATM   10  C           0      14.420 -32.429   1.974  0.00  0.00     0.665 C 
HETATM   11  N           0      13.825 -31.231   1.897  0.00  0.00    -0.235 N 
HETATM   12  N           0      15.754 -32.524   2.128  0.00  0.00    -0.235 N 
HETATM   13  H           0      14.344 -30.386   2.087  0.00  0.00     0.174 HD
HETATM   14  H           0      12.821 -31.155   1.860  0.00  0.00     0.174 HD
HETATM   15  H           0      16.345 -31.730   1.939  0.00  0.00     0.174 HD
HETATM   16  H           0      16.144 -33.466   2.045  0.00  0.00     0.174 HD
HETATM   17  H           0      14.311 -34.413   1.910  0.00  0.00     0.177 HD
ENDBRANCH   8   9
ENDBRANCH   7   8
ENDBRANCH   6   7
ENDBRANCH   5   6
BRANCH   5  18
HETATM   18  C           0       8.638 -33.110   1.601  0.00  0.00     0.243 C 
HETATM   19  N           0       8.367 -34.435   1.748  0.00  0.00    -0.337 N 
HETATM   20  C           0       7.109 -34.977   1.206  0.00  0.00     0.179 C 
HETATM   21  C           0       9.337 -35.524   1.988  0.00  0.00     0.127 C 
HETATM   22  C           0       7.427 -36.462   0.873  0.00  0.00     0.037 C 
HETATM   23  C           0       8.962 -36.542   0.906  0.00  0.00     0.022 C 
HETATM   24  O           0       7.878 -32.347   0.998  0.00  0.00    -0.271 OA
BRANCH  20  25
HETATM   25  C           0       5.902 -34.887   2.156  0.00  0.00     0.241 C 
HETATM   26  N           0       5.160 -33.750   2.133  0.00  0.00    -0.344 N 
HETATM   27  H           0       5.406 -32.999   1.493  0.00  0.00     0.163 HD
HETATM   28  O           0       5.663 -35.835   2.907  0.00  0.00    -0.271 OA
BRANCH  26  29
HETATM   29  C           0       4.118 -33.493   3.116  0.00  0.00     0.200 C 
BRANCH  29  30
HETATM   30  C           0       2.709 -33.996   2.748  0.00  0.00     0.242 C 
HETATM   31  N           0       2.583 -34.778   1.667  0.00  0.00    -0.354 N 
HETATM   32  H           0       3.377 -35.090   1.114  0.00  0.00     0.162 HD
HETATM   33  O           0       1.751 -33.657   3.460  0.00  0.00    -0.271 OA
BRANCH  31  34
HETATM   34  C           0       1.322 -35.357   1.240  0.00  0.00     0.203 C 
BRANCH  34  35
HETATM   35  C           0       1.356 -36.904   1.398  0.00  0.00     0.307 C 
HETATM   36  O           0       2.434 -37.474   1.080  0.00  0.00    -0.186 OA
HETATM   37  O           0       0.296 -37.419   1.830  0.00  0.00    -0.186 OA
ENDBRANCH  34  35
ENDBRANCH  31  34
ENDBRANCH  29  30
BRANCH  29  38
HETATM   38  C           0       4.049 -31.992   3.471  0.00  0.00     0.199 C 
BRANCH  38  39
HETATM   39  O           0       3.697 -31.183   2.364  0.00  0.00    -0.398 OA
HETATM   40  H           0       3.412 -30.306   2.673  0.00  0.00     0.209 HD
ENDBRANCH  38  39
ENDBRANCH  29  38
ENDBRANCH  26  29
ENDBRANCH  20  25
ENDBRANCH   5  18
ENDBRANCH   3   5
BRANCH   1  41
HETATM   41  C           0      10.602 -28.724   2.376  0.00  0.00     0.185 C 
BRANCH  41  42
HETATM   42  C           0       9.730 -27.771   1.538  0.00  0.00     0.137 C 
BRANCH  42  43
HETATM   43  C           0       8.225 -28.021   1.640  0.00  0.00     0.217 C 
HETATM   44  N           0       7.506 -26.927   1.973  0.00  0.00    -0.370 N 
HETATM   45  H           0       6.521 -27.059   2.156  0.00  0.00     0.159 HD
HETATM   46  H           0       7.941 -26.026   2.207  0.00  0.00     0.159 HD
HETATM   47  O           0       7.736 -29.139   1.466  0.00  0.00    -0.274 OA
ENDBRANCH  42  43
ENDBRANCH  41  42
BRANCH  41  48
HETATM   48  N           0      11.956 -28.181   2.380  0.00  0.00    -0.346 N 
HETATM   49  H           0      12.725 -28.814   2.203  0.00  0.00     0.163 HD
HETATM   50  C           0      12.249 -26.904   2.700  0.00  0.00     0.241 C 
HETATM   51  O           0      11.396 -26.078   3.046  0.00  0.00    -0.271 OA
BRANCH  50  52
HETATM   52  C           0      13.729 -26.490   2.589  0.00  0.00     0.177 C 
BRANCH  52  53
HETATM   53  N           0      13.941 -25.087   2.930  0.00  0.00    -0.346 N 
HETATM   54  H           0      14.335 -24.859   3.834  0.00  0.00     0.163 HD
HETATM   55  C           0      13.743 -24.090   2.027  0.00  0.00     0.236 C 
HETATM   56  O           0      13.377 -24.295   0.873  0.00  0.00    -0.272 OA
BRANCH  55  57
HETATM   57  C           0      14.027 -22.661   2.510  0.00  0.00     0.225 C 
BRANCH  57  58
HETATM   58  N           0      13.609 -21.617   1.576  0.00  0.00    -0.351 N 
HETATM   59  H           0      12.952 -21.879   0.855  0.00  0.00     0.163 HD
HETATM   60  C           0      13.868 -20.321   1.867  0.00  0.00     0.248 C 
HETATM   61  O           0      14.529 -20.002   2.861  0.00  0.00    -0.271 OA
BRANCH  60  62
HETATM   62  C           0      13.370 -19.201   0.945  0.00  0.00     0.275 C 
BRANCH  62  63
HETATM   63  N           0      11.872 -18.967   1.048  0.00  0.00    -0.066 N 
HETATM   64  H           0      11.640 -18.152   1.625  0.00  0.00     0.275 HD
HETATM   65  H           0      11.408 -18.857   0.141  0.00  0.00     0.275 HD
HETATM   66  H           0      11.431 -19.778   1.495  0.00  0.00     0.275 HD
ENDBRANCH  62  63
BRANCH  62  67
HETATM   67  C           0      14.097 -17.856   1.114  0.00  0.00     0.053 C 
BRANCH  67  68
HETATM   68  C           0      13.195 -16.626   0.962  0.00  0.00     0.115 C 
BRANCH  68  69
HETATM   69  C           0      13.687 -15.319   1.615  0.00  0.00     0.172 C 
HETATM   70  O           0      14.903 -15.011   1.517  0.00  0.00    -0.648 OA
HETATM   71  O           0      12.805 -14.642   2.237  0.00  0.00    -0.648 OA
ENDBRANCH  68  69
ENDBRANCH  67  68
ENDBRANCH  62  67
ENDBRANCH  60  62
ENDBRANCH  57  58
ENDBRANCH  55  57
ENDBRANCH  52  53
BRANCH  52  72
HETATM   72  C           0      14.637 -27.368   3.481  0.00  0.00     0.038 C 
BRANCH  72  73
HETATM   73  C           0      15.540 -28.391   2.765  0.00  0.00    -0.020 C 
HETATM   74  C           0      15.425 -28.310   1.236  0.00  0.00     0.009 C 
HETATM   75  C           0      16.994 -28.182   3.216  0.00  0.00     0.009 C 
ENDBRANCH  72  73
ENDBRANCH  52  72
ENDBRANCH  50  52
ENDBRANCH  41  48
ENDBRANCH   1  41
TORSDOF 28
ENDMDL
MODEL 3
REMARK VINA RESULT:      -1.1      1.676      2.027
REMARK  28 active torsions:
REMARK  status: ('A' for Active; 'I' for Inactive)
REMARK       I    between atoms: C_1  and  N_3 
REMARK    1  A    between atoms: C_1  and  C_41 
REMARK    2  A    between atoms: N_3  and  C_5 
REMARK    3  A    between atoms: C_5  and  C_6 
REMARK    4  A    between atoms: C_5  and  C_18 
REMARK       I    between atoms: C_18  and  N_19 
REMARK    5  A    between atoms: C_20  and  C_25 
REMARK       I    between atoms: C_25  and  N_26 
REMARK    6  A    between atoms: N_26  and  C_29 
REMARK    7  A    between atoms: C_29  and  C_30 
REMARK    8  A    between atoms: C_29  and  C_38 
REMARK       I    between atoms: C_30  and  N_31 
REMARK    9  A    between atoms: N_31  and  C_34 
REMARK   10  A    between atoms: C_34  and  C_35 
REMARK   11  A    between atoms: C_38  and  O_39 
REMARK   12  A    between atoms: C_6  and  C_7 
REMARK   13  A    between atoms: C_7  and  C_8 
REMARK   14  A    between atoms: C_8  and  N_9 
REMARK       I    between atoms: N_9  and  C_10 
REMARK       I    between atoms: C_10  and  N_12 
REMARK   15  A    between atoms: C_41  and  C_42 
REMARK   16  A    between atoms: C_41  and  N_48 
REMARK       I    between atoms: N_48  and  C_50 
REMARK   17  A    between atoms: C_50  and  C_52 
REMARK   18  A    between atoms: C_52  and  N_53 
REMARK   19  A    between atoms: C_52  and  C_72 
REMARK       I    between atoms: N_53  and  C_55 
REMARK   20  A    between atoms: C_55  and  C_57 
REMARK   21  A    between atoms: C_57  and  N_58 
REMARK       I    between atoms: N_58  and  C_60 
REMARK   22  A    between atoms: C_60  and  C_62 
REMARK   23  A    between atoms: C_62  and  N_63 
REMARK   24  A    between atoms: C_62  and  C_67 
REMARK   25  A    between atoms: C_67  and  C_68 
REMARK   26  A    between atoms: C_68  and  C_69 
REMARK   27  A    between atoms: C_72  and  C_73 
REMARK   28  A    between atoms: C_42  and  C_43 
REMARK       I    between atoms: C_43  and  N_44 
ROOT
HETATM    1  C           0      15.129   9.349   2.433  0.00  0.00     0.241 C 
HETATM    2  O           0      15.103   9.049   1.234  0.00  0.00    -0.271 OA
HETATM    3  N           0      15.369   8.425   3.393  0.00  0.00    -0.346 N 
HETATM    4  H           0      15.347   8.703   4.367  0.00  0.00     0.163 HD
ENDROOT
BRANCH   3   5
HETATM    5  C           0      15.797   7.076   3.028  0.00  0.00     0.176 C 
BRANCH   5   6
HETATM    6  C           0      14.613   6.213   2.560  0.00  0.00     0.036 C 
BRANCH   6   7
HETATM    7  C           0      14.401   5.018   3.497  0.00  0.00     0.023 C 
BRANCH   7   8
HETATM    8  C           0      14.250   3.678   2.778  0.00  0.00     0.138 C 
BRANCH   8   9
HETATM    9  N           0      12.857   3.261   2.916  0.00  0.00    -0.227 N 
HETATM   10  C           0      12.414   2.037   3.185  0.00  0.00     0.665 C 
HETATM   11  N           0      13.250   0.995   3.305  0.00  0.00    -0.235 N 
HETATM   12  N           0      11.088   1.874   3.346  0.00  0.00    -0.235 N 
HETATM   13  H           0      12.917   0.107   3.648  0.00  0.00     0.174 HD
HETATM   14  H           0      14.248   1.127   3.263  0.00  0.00     0.174 HD
HETATM   15  H           0      10.681   0.953   3.308  0.00  0.00     0.174 HD
HETATM   16  H           0      10.510   2.684   3.109  0.00  0.00     0.174 HD
HETATM   17  H           0      12.105   3.957   2.777  0.00  0.00     0.177 HD
ENDBRANCH   8   9
ENDBRANCH   7   8
ENDBRANCH   6   7
ENDBRANCH   5   6
BRANCH   5  18
HETATM   18  C           0      17.012   7.002   2.077  0.00  0.00     0.243 C 
HETATM   19  N           0      18.176   7.632   2.395  0.00  0.00    -0.337 N 
HETATM   20  C           0      19.356   7.443   1.534  0.00  0.00     0.179 C 
HETATM   21  C           0      18.338   8.837   3.236  0.00  0.00     0.127 C 
HETATM   22  C           0      20.178   8.752   1.694  0.00  0.00     0.037 C 
HETATM   23  C           0      19.201   9.741   2.350  0.00  0.00     0.022 C 
HETATM   24  O           0      16.900   6.298   1.069  0.00  0.00    -0.271 OA
BRANCH  20  25
HETATM   25  C           0      20.222   6.219   1.881  0.00  0.00     0.241 C 
HETATM   26  N           0      20.552   5.370   0.875  0.00  0.00    -0.344 N 
HETATM   27  H           0      20.235   5.561  -0.072  0.00  0.00     0.163 HD
HETATM   28  O           0      20.568   6.048   3.052  0.00  0.00    -0.271 OA
BRANCH  26  29
HETATM   29  C           0      21.206   4.094   1.130  0.00  0.00     0.200 C 
BRANCH  29  30
HETATM   30  C           0      20.597   3.243   2.261  0.00  0.00     0.242 C 
HETATM   31  N           0      19.490   2.538   1.991  0.00  0.00    -0.354 N 
HETATM   32  H           0      19.068   2.502   1.067  0.00  0.00     0.162 HD
HETATM   33  O           0      21.150   3.246   3.372  0.00  0.00    -0.271 OA
BRANCH  31  34
HETATM   34  C           0      18.846   1.660   2.951  0.00  0.00     0.203 C 
BRANCH  34  35
HETATM   35  C           0      17.648   0.920   2.291  0.00  0.00     0.307 C 
HETATM   36  O           0      16.510   1.153   2.780  0.00  0.00    -0.186 OA
HETATM   37  O           0      17.949   0.166   1.334  0.00  0.00    -0.186 OA
ENDBRANCH  34  35
ENDBRANCH  31  34
ENDBRANCH  29  30
BRANCH  29  38
HETATM   38  C           0      22.715   4.288   1.389  0.00  0.00     0.199 C 
BRANCH  38  39
HETATM   39  O           0      23.412   3.061   1.513  0.00  0.00    -0.398 OA
HETATM   40  H           0      22.778   2.331   1.613  0.00  0.00     0.209 HD
ENDBRANCH  38  39
ENDBRANCH  29  38
ENDBRANCH  26  29
ENDBRANCH  20  25
ENDBRANCH   5  18
ENDBRANCH   3   5
BRANCH   1  41
HETATM   41  C           0      14.935  10.808   2.897  0.00  0.00     0.185 C 
BRANCH  41  42
HETATM   42  C           0      13.461  11.140   3.197  0.00  0.00     0.137 C 
BRANCH  42  43
HETATM   43  C           0      12.483  10.800   2.072  0.00  0.00     0.217 C 
HETATM   44  N           0      12.236  11.824   1.227  0.00  0.00    -0.370 N 
HETATM   45  H           0      11.520  11.685   0.528  0.00  0.00     0.159 HD
HETATM   46  H           0      12.617  12.767   1.372  0.00  0.00     0.159 HD
HETATM   47  O           0      11.950   9.691   1.984  0.00  0.00    -0.274 OA
ENDBRANCH  42  43
ENDBRANCH  41  42
BRANCH  41  48
HETATM   48  N           0      15.401  11.767   1.903  0.00  0.00    -0.346 N 
HETATM   49  H           0      15.324  11.519   0.925  0.00  0.00     0.163 HD
HETATM   50  C           0      16.017  12.927   2.213  0.00  0.00     0.241 C 
HETATM   51  O           0      16.267  13.273   3.373  0.00  0.00    -0.271 OA
BRANCH  50  52
HETATM   52  C           0      16.385  13.847   1.033  0.00  0.00     0.177 C 
BRANCH  52  53
HETATM   53  N           0      15.736  15.151   1.122  0.00  0.00    -0.346 N 
HETATM   54  H           0      16.299  15.985   1.007  0.00  0.00     0.163 HD
HETATM   55  C           0      14.386  15.277   1.227  0.00  0.00     0.236 C 
HETATM   56  O           0      13.624  14.314   1.254  0.00  0.00    -0.272 OA
BRANCH  55  57
HETATM   57  C           0      13.833  16.707   1.287  0.00  0.00     0.225 C 
BRANCH  57  58
HETATM   58  N           0      14.847  17.733   1.523  0.00  0.00    -0.351 N 
HETATM   59  H           0      15.814  17.457   1.428  0.00  0.00     0.163 HD
HETATM   60  C           0      14.479  19.035   1.565  0.00  0.00     0.248 C 
HETATM   61  O           0      13.292  19.373   1.499  0.00  0.00    -0.271 OA
BRANCH  60  62
HETATM   62  C           0      15.531  20.138   1.730  0.00  0.00     0.275 C 
BRANCH  62  63
HETATM   63  N           0      14.986  21.387   2.402  0.00  0.00    -0.066 N 
HETATM   64  H           0      13.960  21.405   2.425  0.00  0.00     0.275 HD
HETATM   65  H           0      15.328  21.525   3.357  0.00  0.00     0.275 HD
HETATM   66  H           0      15.281  22.214   1.873  0.00  0.00     0.275 HD
ENDBRANCH  62  63
BRANCH  62  67
HETATM   67  C           0      16.813  19.701   2.458  0.00  0.00     0.053 C 
BRANCH  67  68
HETATM   68  C           0      18.112  20.125   1.762  0.00  0.00     0.115 C 
BRANCH  68  69
HETATM   69  C           0      19.379  20.191   2.637  0.00  0.00     0.172 C 
HETATM   70  O           0      19.492  21.125   3.474  0.00  0.00    -0.648 OA
HETATM   71  O           0      20.248  19.284   2.428  0.00  0.00    -0.648 OA
ENDBRANCH  68  69
ENDBRANCH  67  68
ENDBRANCH  62  67
ENDBRANCH  60  62
ENDBRANCH  57  58
ENDBRANCH  55  57
ENDBRANCH  52  53
BRANCH  52  72
HETATM   72  C           0      17.914  14.051   0.923  0.00  0.00     0.038 C 
BRANCH  72  73
HETATM   73  C           0      18.590  14.877   2.033  0.00  0.00    -0.020 C 
HETATM   74  C           0      19.945  14.292   2.460  0.00  0.00     0.009 C 
HETATM   75  C           0      18.747  16.330   1.557  0.00  0.00     0.009 C 
ENDBRANCH  72  73
ENDBRANCH  52  72
ENDBRANCH  50  52
ENDBRANCH  41  48
ENDBRANCH   1  41
TORSDOF 28
ENDMDL
MODEL 4
REMARK VINA RESULT:      -1.0     33.248     41.983
REMARK  28 active torsions:
REMARK  status: ('A' for Active; 'I' for Inactive)
REMARK       I    between atoms: C_1  and  N_3 
REMARK    1  A    between atoms: C_1  and  C_41 
REMARK    2  A    between atoms: N_3  and  C_5 
REMARK    3  A    between atoms: C_5  and  C_6 
REMARK    4  A    between atoms: C_5  and  C_18 
REMARK       I    between atoms: C_18  and  N_19 
REMARK    5  A    between atoms: C_20  and  C_25 
REMARK       I    between atoms: C_25  and  N_26 
REMARK    6  A    between atoms: N_26  and  C_29 
REMARK    7  A    between atoms: C_29  and  C_30 
REMARK    8  A    between atoms: C_29  and  C_38 
REMARK       I    between atoms: C_30  and  N_31 
REMARK    9  A    between atoms: N_31  and  C_34 
REMARK   10  A    between atoms: C_34  and  C_35 
REMARK   11  A    between atoms: C_38  and  O_39 
REMARK   12  A    between atoms: C_6  and  C_7 
REMARK   13  A    between atoms: C_7  and  C_8 
REMARK   14  A    between atoms: C_8  and  N_9 
REMARK       I    between atoms: N_9  and  C_10 
REMARK       I    between atoms: C_10  and  N_12 
REMARK   15  A    between atoms: C_41  and  C_42 
REMARK   16  A    between atoms: C_41  and  N_48 
REMARK       I    between atoms: N_48  and  C_50 
REMARK   17  A    between atoms: C_50  and  C_52 
REMARK   18  A    between atoms: C_52  and  N_53 
REMARK   19  A    between atoms: C_52  and  C_72 
REMARK       I    between atoms: N_53  and  C_55 
REMARK   20  A    between atoms: C_55  and  C_57 
REMARK   21  A    between atoms: C_57  and  N_58 
REMARK       I    between atoms: N_58  and  C_60 
REMARK   22  A    between atoms: C_60  and  C_62 
REMARK   23  A    between atoms: C_62  and  N_63 
REMARK   24  A    between atoms: C_62  and  C_67 
REMARK   25  A    between atoms: C_67  and  C_68 
REMARK   26  A    between atoms: C_68  and  C_69 
REMARK   27  A    between atoms: C_72  and  C_73 
REMARK   28  A    between atoms: C_42  and  C_43 
REMARK       I    between atoms: C_43  and  N_44 
ROOT
HETATM    1  C           0       9.974 -31.993   1.980  0.00  0.00     0.241 C 
HETATM    2  O           0      10.454 -32.296   0.881  0.00  0.00    -0.271 OA
HETATM    3  N           0       9.155 -32.833   2.656  0.00  0.00    -0.346 N 
HETATM    4  H           0       8.754 -32.534   3.536  0.00  0.00     0.163 HD
ENDROOT
BRANCH   3   5
HETATM    5  C           0       8.964 -34.206   2.194  0.00  0.00     0.176 C 
BRANCH   5   6
HETATM    6  C           0       9.369 -35.228   3.269  0.00  0.00     0.036 C 
BRANCH   6   7
HETATM    7  C           0      10.559 -36.075   2.802  0.00  0.00     0.023 C 
BRANCH   7   8
HETATM    8  C           0      11.149 -35.640   1.461  0.00  0.00     0.138 C 
BRANCH   8   9
HETATM    9  N           0      12.602 -35.637   1.602  0.00  0.00    -0.227 N 
HETATM   10  C           0      13.369 -34.601   1.928  0.00  0.00     0.665 C 
HETATM   11  N           0      12.858 -33.376   2.113  0.00  0.00    -0.235 N 
HETATM   12  N           0      14.688 -34.824   2.080  0.00  0.00    -0.235 N 
HETATM   13  H           0      13.425 -32.635   2.498  0.00  0.00     0.174 HD
HETATM   14  H           0      11.863 -33.221   2.077  0.00  0.00     0.174 HD
HETATM   15  H           0      15.336 -34.052   2.084  0.00  0.00     0.174 HD
HETATM   16  H           0      15.017 -35.749   1.793  0.00  0.00     0.174 HD
HETATM   17  H           0      13.130 -36.507   1.417  0.00  0.00     0.177 HD
ENDBRANCH   8   9
ENDBRANCH   7   8
ENDBRANCH   6   7
ENDBRANCH   5   6
BRANCH   5  18
HETATM   18  C           0       7.586 -34.507   1.563  0.00  0.00     0.243 C 
HETATM   19  N           0       6.957 -35.688   1.810  0.00  0.00    -0.337 N 
HETATM   20  C           0       5.592 -35.898   1.297  0.00  0.00     0.179 C 
HETATM   21  C           0       7.587 -36.982   2.147  0.00  0.00     0.127 C 
HETATM   22  C           0       5.480 -37.434   1.086  0.00  0.00     0.037 C 
HETATM   23  C           0       6.931 -37.937   1.144  0.00  0.00     0.022 C 
HETATM   24  O           0       7.063 -33.612   0.893  0.00  0.00    -0.271 OA
BRANCH  20  25
HETATM   25  C           0       4.469 -35.400   2.222  0.00  0.00     0.241 C 
HETATM   26  N           0       3.903 -34.198   1.942  0.00  0.00    -0.344 N 
HETATM   27  H           0       4.220 -33.666   1.136  0.00  0.00     0.163 HD
HETATM   28  O           0       4.136 -36.096   3.184  0.00  0.00    -0.271 OA
BRANCH  26  29
HETATM   29  C           0       2.968 -33.557   2.856  0.00  0.00     0.200 C 
BRANCH  29  30
HETATM   30  C           0       1.589 -33.204   2.267  0.00  0.00     0.242 C 
HETATM   31  N           0       0.522 -33.883   2.711  0.00  0.00    -0.354 N 
HETATM   32  H           0       0.578 -34.580   3.450  0.00  0.00     0.162 HD
HETATM   33  O           0       1.520 -32.313   1.406  0.00  0.00    -0.271 OA
BRANCH  31  34
HETATM   34  C           0      -0.836 -33.616   2.275  0.00  0.00     0.203 C 
BRANCH  34  35
HETATM   35  C           0      -1.430 -34.862   1.558  0.00  0.00     0.307 C 
HETATM   36  O           0      -2.668 -34.830   1.319  0.00  0.00    -0.186 OA
HETATM   37  O           0      -0.605 -35.769   1.294  0.00  0.00    -0.186 OA
ENDBRANCH  34  35
ENDBRANCH  31  34
ENDBRANCH  29  30
BRANCH  29  38
HETATM   38  C           0       3.592 -32.296   3.492  0.00  0.00     0.199 C 
BRANCH  38  39
HETATM   39  O           0       3.984 -31.334   2.531  0.00  0.00    -0.398 OA
HETATM   40  H           0       4.375 -30.563   2.977  0.00  0.00     0.209 HD
ENDBRANCH  38  39
ENDBRANCH  29  38
ENDBRANCH  26  29
ENDBRANCH  20  25
ENDBRANCH   5  18
ENDBRANCH   3   5
BRANCH   1  41
HETATM   41  C           0      10.325 -30.655   2.663  0.00  0.00     0.185 C 
BRANCH  41  42
HETATM   42  C           0       9.089 -29.762   2.882  0.00  0.00     0.137 C 
BRANCH  42  43
HETATM   43  C           0       8.332 -29.391   1.607  0.00  0.00     0.217 C 
HETATM   44  N           0       7.267 -30.181   1.348  0.00  0.00    -0.370 N 
HETATM   45  H           0       6.794 -30.045   0.465  0.00  0.00     0.159 HD
HETATM   46  H           0       7.033 -31.001   1.920  0.00  0.00     0.159 HD
HETATM   47  O           0       8.700 -28.470   0.873  0.00  0.00    -0.274 OA
ENDBRANCH  42  43
ENDBRANCH  41  42
BRANCH  41  48
HETATM   48  N           0      11.289 -29.880   1.891  0.00  0.00    -0.346 N 
HETATM   49  H           0      11.740 -30.326   1.103  0.00  0.00     0.163 HD
HETATM   50  C           0      11.685 -28.633   2.223  0.00  0.00     0.241 C 
HETATM   51  O           0      11.283 -28.040   3.232  0.00  0.00    -0.271 OA
BRANCH  50  52
HETATM   52  C           0      12.663 -27.942   1.255  0.00  0.00     0.177 C 
BRANCH  52  53
HETATM   53  N           0      13.196 -26.696   1.798  0.00  0.00    -0.346 N 
HETATM   54  H           0      14.118 -26.700   2.216  0.00  0.00     0.163 HD
HETATM   55  C           0      12.546 -25.511   1.647  0.00  0.00     0.236 C 
HETATM   56  O           0      11.478 -25.403   1.049  0.00  0.00    -0.272 OA
BRANCH  55  57
HETATM   57  C           0      13.229 -24.273   2.245  0.00  0.00     0.225 C 
BRANCH  57  58
HETATM   58  N           0      12.608 -23.004   1.871  0.00  0.00    -0.351 N 
HETATM   59  H           0      11.712 -23.048   1.406  0.00  0.00     0.163 HD
HETATM   60  C           0      13.081 -21.851   2.398  0.00  0.00     0.248 C 
HETATM   61  O           0      14.084 -21.834   3.119  0.00  0.00    -0.271 OA
BRANCH  60  62
HETATM   62  C           0      12.397 -20.514   2.086  0.00  0.00     0.275 C 
BRANCH  62  63
HETATM   63  N           0      11.923 -19.783   3.331  0.00  0.00    -0.066 N 
HETATM   64  H           0      12.697 -19.366   3.861  0.00  0.00     0.275 HD
HETATM   65  H           0      11.235 -19.048   3.142  0.00  0.00     0.275 HD
HETATM   66  H           0      11.462 -20.447   3.961  0.00  0.00     0.275 HD
ENDBRANCH  62  63
BRANCH  62  67
HETATM   67  C           0      13.231 -19.548   1.229  0.00  0.00     0.053 C 
BRANCH  67  68
HETATM   68  C           0      14.367 -18.849   1.986  0.00  0.00     0.115 C 
BRANCH  68  69
HETATM   69  C           0      14.343 -17.308   2.004  0.00  0.00     0.172 C 
HETATM   70  O           0      15.197 -16.678   1.326  0.00  0.00    -0.648 OA
HETATM   71  O           0      13.451 -16.774   2.739  0.00  0.00    -0.648 OA
ENDBRANCH  68  69
ENDBRANCH  67  68
ENDBRANCH  62  67
ENDBRANCH  60  62
ENDBRANCH  57  58
ENDBRANCH  55  57
ENDBRANCH  52  53
BRANCH  52  72
HETATM   72  C           0      13.840 -28.869   0.874  0.00  0.00     0.038 C 
BRANCH  72  73
HETATM   73  C           0      14.973 -29.020   1.907  0.00  0.00    -0.020 C 
HETATM   74  C           0      15.654 -30.395   1.838  0.00  0.00     0.009 C 
HETATM   75  C           0      15.997 -27.892   1.702  0.00  0.00     0.009 C 
ENDBRANCH  72  73
ENDBRANCH  52  72
ENDBRANCH  50  52
ENDBRANCH  41  48
ENDBRANCH   1  41
TORSDOF 28
ENDMDL
MODEL 5
REMARK VINA RESULT:      -0.3     31.542     40.327
REMARK  28 active torsions:
REMARK  status: ('A' for Active; 'I' for Inactive)
REMARK       I    between atoms: C_1  and  N_3 
REMARK    1  A    between atoms: C_1  and  C_41 
REMARK    2  A    between atoms: N_3  and  C_5 
REMARK    3  A    between atoms: C_5  and  C_6 
REMARK    4  A    between atoms: C_5  and  C_18 
REMARK       I    between atoms: C_18  and  N_19 
REMARK    5  A    between atoms: C_20  and  C_25 
REMARK       I    between atoms: C_25  and  N_26 
REMARK    6  A    between atoms: N_26  and  C_29 
REMARK    7  A    between atoms: C_29  and  C_30 
REMARK    8  A    between atoms: C_29  and  C_38 
REMARK       I    between atoms: C_30  and  N_31 
REMARK    9  A    between atoms: N_31  and  C_34 
REMARK   10  A    between atoms: C_34  and  C_35 
REMARK   11  A    between atoms: C_38  and  O_39 
REMARK   12  A    between atoms: C_6  and  C_7 
REMARK   13  A    between atoms: C_7  and  C_8 
REMARK   14  A    between atoms: C_8  and  N_9 
REMARK       I    between atoms: N_9  and  C_10 
REMARK       I    between atoms: C_10  and  N_12 
REMARK   15  A    between atoms: C_41  and  C_42 
REMARK   16  A    between atoms: C_41  and  N_48 
REMARK       I    between atoms: N_48  and  C_50 
REMARK   17  A    between atoms: C_50  and  C_52 
REMARK   18  A    between atoms: C_52  and  N_53 
REMARK   19  A    between atoms: C_52  and  C_72 
REMARK       I    between atoms: N_53  and  C_55 
REMARK   20  A    between atoms: C_55  and  C_57 
REMARK   21  A    between atoms: C_57  and  N_58 
REMARK       I    between atoms: N_58  and  C_60 
REMARK   22  A    between atoms: C_60  and  C_62 
REMARK   23  A    between atoms: C_62  and  N_63 
REMARK   24  A    between atoms: C_62  and  C_67 
REMARK   25  A    between atoms: C_67  and  C_68 
REMARK   26  A    between atoms: C_68  and  C_69 
REMARK   27  A    between atoms: C_72  and  C_73 
REMARK   28  A    between atoms: C_42  and  C_43 
REMARK       I    between atoms: C_43  and  N_44 
ROOT
HETATM    1  C           0      11.266 -30.715   2.044  0.00  0.00     0.241 C 
HETATM    2  O           0      11.833 -31.104   1.016  0.00  0.00    -0.271 OA
HETATM    3  N           0      10.242 -31.406   2.598  0.00  0.00    -0.346 N 
HETATM    4  H           0       9.780 -31.036   3.420  0.00  0.00     0.163 HD
ENDROOT
BRANCH   3   5
HETATM    5  C           0       9.900 -32.738   2.104  0.00  0.00     0.176 C 
BRANCH   5   6
HETATM    6  C           0      10.286 -33.834   3.112  0.00  0.00     0.036 C 
BRANCH   6   7
HETATM    7  C           0      11.405 -34.722   2.556  0.00  0.00     0.023 C 
BRANCH   7   8
HETATM    8  C           0      12.733 -34.596   3.302  0.00  0.00     0.138 C 
BRANCH   8   9
HETATM    9  N           0      13.537 -33.599   2.599  0.00  0.00    -0.227 N 
HETATM   10  C           0      14.835 -33.677   2.317  0.00  0.00     0.665 C 
HETATM   11  N           0      15.584 -34.710   2.726  0.00  0.00    -0.235 N 
HETATM   12  N           0      15.376 -32.680   1.592  0.00  0.00    -0.235 N 
HETATM   13  H           0      16.527 -34.826   2.386  0.00  0.00     0.174 HD
HETATM   14  H           0      15.167 -35.494   3.200  0.00  0.00     0.174 HD
HETATM   15  H           0      16.377 -32.563   1.559  0.00  0.00     0.174 HD
HETATM   16  H           0      14.774 -31.869   1.434  0.00  0.00     0.174 HD
HETATM   17  H           0      13.093 -32.718   2.289  0.00  0.00     0.177 HD
ENDBRANCH   8   9
ENDBRANCH   7   8
ENDBRANCH   6   7
ENDBRANCH   5   6
BRANCH   5  18
HETATM   18  C           0       8.461 -32.894   1.563  0.00  0.00     0.243 C 
HETATM   19  N           0       7.776 -34.054   1.749  0.00  0.00    -0.337 N 
HETATM   20  C           0       6.365 -34.133   1.333  0.00  0.00     0.179 C 
HETATM   21  C           0       8.342 -35.410   1.910  0.00  0.00     0.127 C 
HETATM   22  C           0       6.135 -35.631   0.988  0.00  0.00     0.037 C 
HETATM   23  C           0       7.550 -36.222   0.879  0.00  0.00     0.022 C 
HETATM   24  O           0       7.949 -31.908   1.025  0.00  0.00    -0.271 OA
BRANCH  20  25
HETATM   25  C           0       5.350 -33.663   2.390  0.00  0.00     0.241 C 
HETATM   26  N           0       4.507 -32.654   2.055  0.00  0.00    -0.344 N 
HETATM   27  H           0       4.554 -32.243   1.126  0.00  0.00     0.163 HD
HETATM   28  O           0       5.351 -34.205   3.498  0.00  0.00    -0.271 OA
BRANCH  26  29
HETATM   29  C           0       3.643 -32.016   3.039  0.00  0.00     0.200 C 
BRANCH  29  30
HETATM   30  C           0       2.143 -31.974   2.687  0.00  0.00     0.242 C 
HETATM   31  N           0       1.471 -30.841   2.934  0.00  0.00    -0.354 N 
HETATM   32  H           0       1.916 -30.000   3.293  0.00  0.00     0.162 HD
HETATM   33  O           0       1.618 -32.985   2.197  0.00  0.00    -0.271 OA
BRANCH  31  34
HETATM   34  C           0       0.070 -30.654   2.605  0.00  0.00     0.203 C 
BRANCH  34  35
HETATM   35  C           0      -0.423 -29.265   3.103  0.00  0.00     0.307 C 
HETATM   36  O           0      -1.660 -29.158   3.323  0.00  0.00    -0.186 OA
HETATM   37  O           0       0.473 -28.397   3.233  0.00  0.00    -0.186 OA
ENDBRANCH  34  35
ENDBRANCH  31  34
ENDBRANCH  29  30
BRANCH  29  38
HETATM   38  C           0       4.133 -30.589   3.365  0.00  0.00     0.199 C 
BRANCH  38  39
HETATM   39  O           0       4.454 -29.841   2.206  0.00  0.00    -0.398 OA
HETATM   40  H           0       3.864 -29.072   2.137  0.00  0.00     0.209 HD
ENDBRANCH  38  39
ENDBRANCH  29  38
ENDBRANCH  26  29
ENDBRANCH  20  25
ENDBRANCH   5  18
ENDBRANCH   3   5
BRANCH   1  41
HETATM   41  C           0      11.730 -29.440   2.779  0.00  0.00     0.185 C 
BRANCH  41  42
HETATM   42  C           0      10.561 -28.495   3.116  0.00  0.00     0.137 C 
BRANCH  42  43
HETATM   43  C           0       9.648 -28.158   1.938  0.00  0.00     0.217 C 
HETATM   44  N           0       9.420 -26.837   1.776  0.00  0.00    -0.370 N 
HETATM   45  H           0       8.742 -26.565   1.078  0.00  0.00     0.159 HD
HETATM   46  H           0       9.773 -26.129   2.432  0.00  0.00     0.159 HD
HETATM   47  O           0       9.143 -29.035   1.231  0.00  0.00    -0.274 OA
ENDBRANCH  42  43
ENDBRANCH  41  42
BRANCH  41  48
HETATM   48  N           0      12.695 -28.675   1.997  0.00  0.00    -0.346 N 
HETATM   49  H           0      13.316 -29.179   1.378  0.00  0.00     0.163 HD
HETATM   50  C           0      12.872 -27.344   2.122  0.00  0.00     0.241 C 
HETATM   51  O           0      12.246 -26.649   2.932  0.00  0.00    -0.271 OA
BRANCH  50  52
HETATM   52  C           0      13.892 -26.693   1.169  0.00  0.00     0.177 C 
BRANCH  52  53
HETATM   53  N           0      14.215 -25.322   1.551  0.00  0.00    -0.346 N 
HETATM   54  H           0      15.184 -25.074   1.706  0.00  0.00     0.163 HD
HETATM   55  C           0      13.271 -24.343   1.583  0.00  0.00     0.236 C 
HETATM   56  O           0      12.093 -24.539   1.295  0.00  0.00    -0.272 OA
BRANCH  55  57
HETATM   57  C           0      13.752 -22.940   1.978  0.00  0.00     0.225 C 
BRANCH  57  58
HETATM   58  N           0      12.792 -21.875   1.697  0.00  0.00    -0.351 N 
HETATM   59  H           0      11.848 -22.153   1.466  0.00  0.00     0.163 HD
HETATM   60  C           0      13.096 -20.599   2.030  0.00  0.00     0.248 C 
HETATM   61  O           0      14.205 -20.298   2.485  0.00  0.00    -0.271 OA
BRANCH  60  62
HETATM   62  C           0      12.076 -19.474   1.821  0.00  0.00     0.275 C 
BRANCH  62  63
HETATM   63  N           0      11.426 -19.012   3.114  0.00  0.00    -0.066 N 
HETATM   64  H           0      10.558 -18.489   2.954  0.00  0.00     0.275 HD
HETATM   65  H           0      11.222 -19.772   3.770  0.00  0.00     0.275 HD
HETATM   66  H           0      12.062 -18.377   3.607  0.00  0.00     0.275 HD
ENDBRANCH  62  63
BRANCH  62  67
HETATM   67  C           0      12.614 -18.247   1.068  0.00  0.00     0.053 C 
BRANCH  67  68
HETATM   68  C           0      12.504 -16.929   1.844  0.00  0.00     0.115 C 
BRANCH  68  69
HETATM   69  C           0      13.820 -16.181   2.133  0.00  0.00     0.172 C 
HETATM   70  O           0      13.794 -14.928   2.254  0.00  0.00    -0.648 OA
HETATM   71  O           0      14.866 -16.904   2.209  0.00  0.00    -0.648 OA
ENDBRANCH  68  69
ENDBRANCH  67  68
ENDBRANCH  62  67
ENDBRANCH  60  62
ENDBRANCH  57  58
ENDBRANCH  55  57
ENDBRANCH  52  53
BRANCH  52  72
HETATM   72  C           0      15.199 -27.514   1.084  0.00  0.00     0.038 C 
BRANCH  72  73
HETATM   73  C           0      15.998 -27.692   2.389  0.00  0.00    -0.020 C 
HETATM   74  C           0      16.349 -29.161   2.669  0.00  0.00     0.009 C 
HETATM   75  C           0      17.267 -26.828   2.325  0.00  0.00     0.009 C 
ENDBRANCH  72  73
ENDBRANCH  52  72
ENDBRANCH  50  52
ENDBRANCH  41  48
ENDBRANCH   1  41
TORSDOF 28
ENDMDL
MODEL 6
REMARK VINA RESULT:      -0.1      3.200      4.563
REMARK  28 active torsions:
REMARK  status: ('A' for Active; 'I' for Inactive)
REMARK       I    between atoms: C_1  and  N_3 
REMARK    1  A    between atoms: C_1  and  C_41 
REMARK    2  A    between atoms: N_3  and  C_5 
REMARK    3  A    between atoms: C_5  and  C_6 
REMARK    4  A    between atoms: C_5  and  C_18 
REMARK       I    between atoms: C_18  and  N_19 
REMARK    5  A    between atoms: C_20  and  C_25 
REMARK       I    between atoms: C_25  and  N_26 
REMARK    6  A    between atoms: N_26  and  C_29 
REMARK    7  A    between atoms: C_29  and  C_30 
REMARK    8  A    between atoms: C_29  and  C_38 
REMARK       I    between atoms: C_30  and  N_31 
REMARK    9  A    between atoms: N_31  and  C_34 
REMARK   10  A    between atoms: C_34  and  C_35 
REMARK   11  A    between atoms: C_38  and  O_39 
REMARK   12  A    between atoms: C_6  and  C_7 
REMARK   13  A    between atoms: C_7  and  C_8 
REMARK   14  A    between atoms: C_8  and  N_9 
REMARK       I    between atoms: N_9  and  C_10 
REMARK       I    between atoms: C_10  and  N_12 
REMARK   15  A    between atoms: C_41  and  C_42 
REMARK   16  A    between atoms: C_41  and  N_48 
REMARK       I    between atoms: N_48  and  C_50 
REMARK   17  A    between atoms: C_50  and  C_52 
REMARK   18  A    between atoms: C_52  and  N_53 
REMARK   19  A    between atoms: C_52  and  C_72 
REMARK       I    between atoms: N_53  and  C_55 
REMARK   20  A    between atoms: C_55  and  C_57 
REMARK   21  A    between atoms: C_57  and  N_58 
REMARK       I    between atoms: N_58  and  C_60 
REMARK   22  A    between atoms: C_60  and  C_62 
REMARK   23  A    between atoms: C_62  and  N_63 
REMARK   24  A    between atoms: C_62  and  C_67 
REMARK   25  A    between atoms: C_67  and  C_68 
REMARK   26  A    between atoms: C_68  and  C_69 
REMARK   27  A    between atoms: C_72  and  C_73 
REMARK   28  A    between atoms: C_42  and  C_43 
REMARK       I    between atoms: C_43  and  N_44 
ROOT
HETATM    1  C           0      14.903   9.928   2.168  0.00  0.00     0.241 C 
HETATM    2  O           0      14.963   9.343   1.080  0.00  0.00    -0.271 OA
HETATM    3  N           0      14.875   9.252   3.340  0.00  0.00    -0.346 N 
HETATM    4  H           0      14.789   9.766   4.209  0.00  0.00     0.163 HD
ENDROOT
BRANCH   3   5
HETATM    5  C           0      15.107   7.809   3.365  0.00  0.00     0.176 C 
BRANCH   5   6
HETATM    6  C           0      13.796   7.020   3.213  0.00  0.00     0.036 C 
BRANCH   6   7
HETATM    7  C           0      14.024   5.524   3.457  0.00  0.00     0.023 C 
BRANCH   7   8
HETATM    8  C           0      12.940   4.621   2.868  0.00  0.00     0.138 C 
BRANCH   8   9
HETATM    9  N           0      13.401   3.241   2.996  0.00  0.00    -0.227 N 
HETATM   10  C           0      14.613   2.776   2.705  0.00  0.00     0.665 C 
HETATM   11  N           0      15.563   3.562   2.181  0.00  0.00    -0.235 N 
HETATM   12  N           0      14.861   1.479   2.966  0.00  0.00    -0.235 N 
HETATM   13  H           0      16.514   3.234   2.100  0.00  0.00     0.174 HD
HETATM   14  H           0      15.406   4.549   2.058  0.00  0.00     0.174 HD
HETATM   15  H           0      15.658   1.021   2.550  0.00  0.00     0.174 HD
HETATM   16  H           0      14.051   0.918   3.238  0.00  0.00     0.174 HD
HETATM   17  H           0      12.742   2.516   3.325  0.00  0.00     0.177 HD
ENDBRANCH   8   9
ENDBRANCH   7   8
ENDBRANCH   6   7
ENDBRANCH   5   6
BRANCH   5  18
HETATM   18  C           0      16.229   7.303   2.431  0.00  0.00     0.243 C 
HETATM   19  N           0      17.534   7.561   2.718  0.00  0.00    -0.337 N 
HETATM   20  C           0      18.588   6.963   1.880  0.00  0.00     0.179 C 
HETATM   21  C           0      18.071   8.705   3.484  0.00  0.00     0.127 C 
HETATM   22  C           0      19.776   7.961   1.964  0.00  0.00     0.037 C 
HETATM   23  C           0      19.161   9.242   2.550  0.00  0.00     0.022 C 
HETATM   24  O           0      15.893   6.608   1.468  0.00  0.00    -0.271 OA
BRANCH  20  25
HETATM   25  C           0      19.036   5.555   2.309  0.00  0.00     0.241 C 
HETATM   26  N           0      20.020   4.956   1.590  0.00  0.00    -0.344 N 
HETATM   27  H           0      20.440   5.445   0.804  0.00  0.00     0.163 HD
HETATM   28  O           0      18.481   5.021   3.272  0.00  0.00    -0.271 OA
BRANCH  26  29
HETATM   29  C           0      20.383   3.562   1.799  0.00  0.00     0.200 C 
BRANCH  29  30
HETATM   30  C           0      19.285   2.528   1.482  0.00  0.00     0.242 C 
HETATM   31  N           0      19.504   1.251   1.828  0.00  0.00    -0.354 N 
HETATM   32  H           0      20.335   0.949   2.331  0.00  0.00     0.162 HD
HETATM   33  O           0      18.250   2.913   0.918  0.00  0.00    -0.271 OA
BRANCH  31  34
HETATM   34  C           0      18.534   0.191   1.631  0.00  0.00     0.203 C 
BRANCH  34  35
HETATM   35  C           0      19.174  -1.194   1.935  0.00  0.00     0.307 C 
HETATM   36  O           0      18.511  -1.962   2.683  0.00  0.00    -0.186 OA
HETATM   37  O           0      20.289  -1.395   1.397  0.00  0.00    -0.186 OA
ENDBRANCH  34  35
ENDBRANCH  31  34
ENDBRANCH  29  30
BRANCH  29  38
HETATM   38  C           0      20.903   3.333   3.234  0.00  0.00     0.199 C 
BRANCH  38  39
HETATM   39  O           0      22.315   3.248   3.299  0.00  0.00    -0.398 OA
HETATM   40  H           0      22.648   3.834   4.000  0.00  0.00     0.209 HD
ENDBRANCH  38  39
ENDBRANCH  29  38
ENDBRANCH  26  29
ENDBRANCH  20  25
ENDBRANCH   5  18
ENDBRANCH   3   5
BRANCH   1  41
HETATM   41  C           0      14.907  11.469   2.248  0.00  0.00     0.185 C 
BRANCH  41  42
HETATM   42  C           0      13.778  12.105   1.414  0.00  0.00     0.137 C 
BRANCH  42  43
HETATM   43  C           0      13.286  13.459   1.927  0.00  0.00     0.217 C 
HETATM   44  N           0      13.819  14.519   1.283  0.00  0.00    -0.370 N 
HETATM   45  H           0      13.609  15.437   1.649  0.00  0.00     0.159 HD
HETATM   46  H           0      14.544  14.423   0.561  0.00  0.00     0.159 HD
HETATM   47  O           0      12.499  13.552   2.873  0.00  0.00    -0.274 OA
ENDBRANCH  42  43
ENDBRANCH  41  42
BRANCH  41  48
HETATM   48  N           0      16.164  12.041   1.781  0.00  0.00    -0.346 N 
HETATM   49  H           0      16.691  11.533   1.083  0.00  0.00     0.163 HD
HETATM   50  C           0      16.714  13.160   2.295  0.00  0.00     0.241 C 
HETATM   51  O           0      16.212  13.795   3.231  0.00  0.00    -0.271 OA
BRANCH  50  52
HETATM   52  C           0      18.016  13.653   1.636  0.00  0.00     0.177 C 
BRANCH  52  53
HETATM   53  N           0      17.902  15.018   1.132  0.00  0.00    -0.346 N 
HETATM   54  H           0      17.097  15.266   0.570  0.00  0.00     0.163 HD
HETATM   55  C           0      18.776  15.994   1.498  0.00  0.00     0.236 C 
HETATM   56  O           0      19.712  15.801   2.270  0.00  0.00    -0.272 OA
BRANCH  55  57
HETATM   57  C           0      18.526  17.392   0.915  0.00  0.00     0.225 C 
BRANCH  57  58
HETATM   58  N           0      19.619  18.338   1.133  0.00  0.00    -0.351 N 
HETATM   59  H           0      20.204  18.558   0.340  0.00  0.00     0.163 HD
HETATM   60  C           0      19.635  19.087   2.260  0.00  0.00     0.248 C 
HETATM   61  O           0      18.795  18.928   3.153  0.00  0.00    -0.271 OA
BRANCH  60  62
HETATM   62  C           0      20.723  20.145   2.478  0.00  0.00     0.275 C 
BRANCH  62  63
HETATM   63  N           0      22.093  19.696   1.996  0.00  0.00    -0.066 N 
HETATM   64  H           0      22.325  18.744   2.299  0.00  0.00     0.275 HD
HETATM   65  H           0      22.210  19.744   0.979  0.00  0.00     0.275 HD
HETATM   66  H           0      22.812  20.312   2.392  0.00  0.00     0.275 HD
ENDBRANCH  62  63
BRANCH  62  67
HETATM   67  C           0      20.411  21.525   1.876  0.00  0.00     0.053 C 
BRANCH  67  68
HETATM   68  C           0      21.642  22.290   1.375  0.00  0.00     0.115 C 
BRANCH  68  69
HETATM   69  C           0      22.759  22.558   2.402  0.00  0.00     0.172 C 
HETATM   70  O           0      22.520  23.318   3.377  0.00  0.00    -0.648 OA
HETATM   71  O           0      23.876  21.990   2.170  0.00  0.00    -0.648 OA
ENDBRANCH  68  69
ENDBRANCH  67  68
ENDBRANCH  62  67
ENDBRANCH  60  62
ENDBRANCH  57  58
ENDBRANCH  55  57
ENDBRANCH  52  53
BRANCH  52  72
HETATM   72  C           0      19.215  13.572   2.608  0.00  0.00     0.038 C 
BRANCH  72  73
HETATM   73  C           0      20.262  12.475   2.336  0.00  0.00    -0.020 C 
HETATM   74  C           0      20.257  12.005   0.874  0.00  0.00     0.009 C 
HETATM   75  C           0      21.652  12.993   2.740  0.00  0.00     0.009 C 
ENDBRANCH  72  73
ENDBRANCH  52  72
ENDBRANCH  50  52
ENDBRANCH  41  48
ENDBRANCH   1  41
TORSDOF 28
ENDMDL
MODEL 7
REMARK VINA RESULT:      -0.1     32.403     39.647
REMARK  28 active torsions:
REMARK  status: ('A' for Active; 'I' for Inactive)
REMARK       I    between atoms: C_1  and  N_3 
REMARK    1  A    between atoms: C_1  and  C_41 
REMARK    2  A    between atoms: N_3  and  C_5 
REMARK    3  A    between atoms: C_5  and  C_6 
REMARK    4  A    between atoms: C_5  and  C_18 
REMARK       I    between atoms: C_18  and  N_19 
REMARK    5  A    between atoms: C_20  and  C_25 
REMARK       I    between atoms: C_25  and  N_26 
REMARK    6  A    between atoms: N_26  and  C_29 
REMARK    7  A    between atoms: C_29  and  C_30 
REMARK    8  A    between atoms: C_29  and  C_38 
REMARK       I    between atoms: C_30  and  N_31 
REMARK    9  A    between atoms: N_31  and  C_34 
REMARK   10  A    between atoms: C_34  and  C_35 
REMARK   11  A    between atoms: C_38  and  O_39 
REMARK   12  A    between atoms: C_6  and  C_7 
REMARK   13  A    between atoms: C_7  and  C_8 
REMARK   14  A    between atoms: C_8  and  N_9 
REMARK       I    between atoms: N_9  and  C_10 
REMARK       I    between atoms: C_10  and  N_12 
REMARK   15  A    between atoms: C_41  and  C_42 
REMARK   16  A    between atoms: C_41  and  N_48 
REMARK       I    between atoms: N_48  and  C_50 
REMARK   17  A    between atoms: C_50  and  C_52 
REMARK   18  A    between atoms: C_52  and  N_53 
REMARK   19  A    between atoms: C_52  and  C_72 
REMARK       I    between atoms: N_53  and  C_55 
REMARK   20  A    between atoms: C_55  and  C_57 
REMARK   21  A    between atoms: C_57  and  N_58 
REMARK       I    between atoms: N_58  and  C_60 
REMARK   22  A    between atoms: C_60  and  C_62 
REMARK   23  A    between atoms: C_62  and  N_63 
REMARK   24  A    between atoms: C_62  and  C_67 
REMARK   25  A    between atoms: C_67  and  C_68 
REMARK   26  A    between atoms: C_68  and  C_69 
REMARK   27  A    between atoms: C_72  and  C_73 
REMARK   28  A    between atoms: C_42  and  C_43 
REMARK       I    between atoms: C_43  and  N_44 
ROOT
HETATM    1  C           0     -13.152  -8.699   2.433  0.00  0.00     0.241 C 
HETATM    2  O           0     -13.708  -8.297   3.461  0.00  0.00    -0.271 OA
HETATM    3  N           0     -13.379  -8.125   1.228  0.00  0.00    -0.346 N 
HETATM    4  H           0     -12.932  -8.507   0.403  0.00  0.00     0.163 HD
ENDROOT
BRANCH   3   5
HETATM    5  C           0     -14.146  -6.884   1.135  0.00  0.00     0.176 C 
BRANCH   5   6
HETATM    6  C           0     -15.649  -7.158   0.964  0.00  0.00     0.036 C 
BRANCH   6   7
HETATM    7  C           0     -16.400  -6.943   2.283  0.00  0.00     0.023 C 
BRANCH   7   8
HETATM    8  C           0     -17.440  -8.020   2.594  0.00  0.00     0.138 C 
BRANCH   8   9
HETATM    9  N           0     -18.549  -7.840   1.661  0.00  0.00    -0.227 N 
HETATM   10  C           0     -19.847  -7.917   1.942  0.00  0.00     0.665 C 
HETATM   11  N           0     -20.286  -8.242   3.166  0.00  0.00    -0.235 N 
HETATM   12  N           0     -20.716  -7.643   0.951  0.00  0.00    -0.235 N 
HETATM   13  H           0     -21.263  -8.157   3.401  0.00  0.00     0.174 HD
HETATM   14  H           0     -19.640  -8.370   3.928  0.00  0.00     0.174 HD
HETATM   15  H           0     -21.683  -7.918   1.034  0.00  0.00     0.174 HD
HETATM   16  H           0     -20.308  -7.535   0.020  0.00  0.00     0.174 HD
HETATM   17  H           0     -18.347  -7.652   0.665  0.00  0.00     0.177 HD
ENDBRANCH   8   9
ENDBRANCH   7   8
ENDBRANCH   6   7
ENDBRANCH   5   6
BRANCH   5  18
HETATM   18  C           0     -13.842  -5.836   2.228  0.00  0.00     0.243 C 
HETATM   19  N           0     -12.941  -4.842   2.000  0.00  0.00    -0.337 N 
HETATM   20  C           0     -12.762  -3.785   3.010  0.00  0.00     0.179 C 
HETATM   21  C           0     -11.783  -4.881   1.082  0.00  0.00     0.127 C 
HETATM   22  C           0     -11.290  -3.316   2.836  0.00  0.00     0.037 C 
HETATM   23  C           0     -10.635  -4.413   1.983  0.00  0.00     0.022 C 
HETATM   24  O           0     -14.496  -5.902   3.273  0.00  0.00    -0.271 OA
BRANCH  20  25
HETATM   25  C           0     -13.725  -2.593   2.879  0.00  0.00     0.241 C 
HETATM   26  N           0     -14.991  -2.843   2.456  0.00  0.00    -0.344 N 
HETATM   27  H           0     -15.274  -3.797   2.248  0.00  0.00     0.163 HD
HETATM   28  O           0     -13.312  -1.462   3.145  0.00  0.00    -0.271 OA
BRANCH  26  29
HETATM   29  C           0     -15.916  -1.769   2.123  0.00  0.00     0.200 C 
BRANCH  29  30
HETATM   30  C           0     -17.383  -2.190   1.909  0.00  0.00     0.242 C 
HETATM   31  N           0     -17.626  -3.451   1.527  0.00  0.00    -0.354 N 
HETATM   32  H           0     -16.894  -4.149   1.423  0.00  0.00     0.162 HD
HETATM   33  O           0     -18.276  -1.349   2.093  0.00  0.00    -0.271 OA
BRANCH  31  34
HETATM   34  C           0     -18.962  -3.987   1.339  0.00  0.00     0.203 C 
BRANCH  34  35
HETATM   35  C           0     -19.585  -4.383   2.708  0.00  0.00     0.307 C 
HETATM   36  O           0     -20.778  -4.025   2.903  0.00  0.00    -0.186 OA
HETATM   37  O           0     -18.824  -5.023   3.474  0.00  0.00    -0.186 OA
ENDBRANCH  34  35
ENDBRANCH  31  34
ENDBRANCH  29  30
BRANCH  29  38
HETATM   38  C           0     -15.425  -0.977   0.893  0.00  0.00     0.199 C 
BRANCH  38  39
HETATM   39  O           0     -15.903   0.356   0.873  0.00  0.00    -0.398 OA
HETATM   40  H           0     -15.773   0.739  -0.011  0.00  0.00     0.209 HD
ENDBRANCH  38  39
ENDBRANCH  29  38
ENDBRANCH  26  29
ENDBRANCH  20  25
ENDBRANCH   5  18
ENDBRANCH   3   5
BRANCH   1  41
HETATM   41  C           0     -12.128  -9.853   2.478  0.00  0.00     0.185 C 
BRANCH  41  42
HETATM   42  C           0     -11.489 -10.128   1.103  0.00  0.00     0.137 C 
BRANCH  42  43
HETATM   43  C           0     -10.397 -11.198   1.106  0.00  0.00     0.217 C 
HETATM   44  N           0     -10.852 -12.451   0.890  0.00  0.00    -0.370 N 
HETATM   45  H           0     -10.189 -13.207   0.985  0.00  0.00     0.159 HD
HETATM   46  H           0     -11.852 -12.671   0.805  0.00  0.00     0.159 HD
HETATM   47  O           0      -9.214 -10.923   1.324  0.00  0.00    -0.274 OA
ENDBRANCH  42  43
ENDBRANCH  41  42
BRANCH  41  48
HETATM   48  N           0     -12.726 -11.102   2.935  0.00  0.00    -0.346 N 
HETATM   49  H           0     -12.193 -11.684   3.568  0.00  0.00     0.163 HD
HETATM   50  C           0     -13.909 -11.572   2.489  0.00  0.00     0.241 C 
HETATM   51  O           0     -14.588 -10.998   1.629  0.00  0.00    -0.271 OA
BRANCH  50  52
HETATM   52  C           0     -14.416 -12.878   3.131  0.00  0.00     0.177 C 
BRANCH  52  53
HETATM   53  N           0     -15.864 -13.024   3.028  0.00  0.00    -0.346 N 
HETATM   54  H           0     -16.447 -12.641   3.762  0.00  0.00     0.163 HD
HETATM   55  C           0     -16.457 -13.542   1.919  0.00  0.00     0.236 C 
HETATM   56  O           0     -15.825 -13.921   0.936  0.00  0.00    -0.272 OA
BRANCH  55  57
HETATM   57  C           0     -17.990 -13.616   1.932  0.00  0.00     0.225 C 
BRANCH  57  58
HETATM   58  N           0     -18.529 -14.956   1.710  0.00  0.00    -0.351 N 
HETATM   59  H           0     -18.011 -15.732   2.097  0.00  0.00     0.163 HD
HETATM   60  C           0     -19.803 -15.097   1.272  0.00  0.00     0.248 C 
HETATM   61  O           0     -20.493 -14.118   0.969  0.00  0.00    -0.271 OA
BRANCH  60  62
HETATM   62  C           0     -20.420 -16.491   1.109  0.00  0.00     0.275 C 
BRANCH  62  63
HETATM   63  N           0     -19.469 -17.612   1.493  0.00  0.00    -0.066 N 
HETATM   64  H           0     -18.769 -17.800   0.768  0.00  0.00     0.275 HD
HETATM   65  H           0     -18.976 -17.452   2.377  0.00  0.00     0.275 HD
HETATM   66  H           0     -20.000 -18.480   1.619  0.00  0.00     0.275 HD
ENDBRANCH  62  63
BRANCH  62  67
HETATM   67  C           0     -21.754 -16.695   1.845  0.00  0.00     0.053 C 
BRANCH  67  68
HETATM   68  C           0     -22.987 -16.692   0.933  0.00  0.00     0.115 C 
BRANCH  68  69
HETATM   69  C           0     -24.363 -16.633   1.626  0.00  0.00     0.172 C 
HETATM   70  O           0     -25.200 -15.773   1.245  0.00  0.00    -0.648 OA
HETATM   71  O           0     -24.547 -17.468   2.570  0.00  0.00    -0.648 OA
ENDBRANCH  68  69
ENDBRANCH  67  68
ENDBRANCH  62  67
ENDBRANCH  60  62
ENDBRANCH  57  58
ENDBRANCH  55  57
ENDBRANCH  52  53
BRANCH  52  72
HETATM   72  C           0     -13.738 -14.121   2.509  0.00  0.00     0.038 C 
BRANCH  72  73
HETATM   73  C           0     -13.530 -15.338   3.430  0.00  0.00    -0.020 C 
HETATM   74  C           0     -14.490 -16.492   3.108  0.00  0.00     0.009 C 
HETATM   75  C           0     -12.067 -15.799   3.333  0.00  0.00     0.009 C 
ENDBRANCH  72  73
ENDBRANCH  52  72
ENDBRANCH  50  52
ENDBRANCH  41  48
ENDBRANCH   1  41
TORSDOF 28
ENDMDL
MODEL 8
REMARK VINA RESULT:       0.6      2.163      3.420
REMARK  28 active torsions:
REMARK  status: ('A' for Active; 'I' for Inactive)
REMARK       I    between atoms: C_1  and  N_3 
REMARK    1  A    between atoms: C_1  and  C_41 
REMARK    2  A    between atoms: N_3  and  C_5 
REMARK    3  A    between atoms: C_5  and  C_6 
REMARK    4  A    between atoms: C_5  and  C_18 
REMARK       I    between atoms: C_18  and  N_19 
REMARK    5  A    between atoms: C_20  and  C_25 
REMARK       I    between atoms: C_25  and  N_26 
REMARK    6  A    between atoms: N_26  and  C_29 
REMARK    7  A    between atoms: C_29  and  C_30 
REMARK    8  A    between atoms: C_29  and  C_38 
REMARK       I    between atoms: C_30  and  N_31 
REMARK    9  A    between atoms: N_31  and  C_34 
REMARK   10  A    between atoms: C_34  and  C_35 
REMARK   11  A    between atoms: C_38  and  O_39 
REMARK   12  A    between atoms: C_6  and  C_7 
REMARK   13  A    between atoms: C_7  and  C_8 
REMARK   14  A    between atoms: C_8  and  N_9 
REMARK       I    between atoms: N_9  and  C_10 
REMARK       I    between atoms: C_10  and  N_12 
REMARK   15  A    between atoms: C_41  and  C_42 
REMARK   16  A    between atoms: C_41  and  N_48 
REMARK       I    between atoms: N_48  and  C_50 
REMARK   17  A    between atoms: C_50  and  C_52 
REMARK   18  A    between atoms: C_52  and  N_53 
REMARK   19  A    between atoms: C_52  and  C_72 
REMARK       I    between atoms: N_53  and  C_55 
REMARK   20  A    between atoms: C_55  and  C_57 
REMARK   21  A    between atoms: C_57  and  N_58 
REMARK       I    between atoms: N_58  and  C_60 
REMARK   22  A    between atoms: C_60  and  C_62 
REMARK   23  A    between atoms: C_62  and  N_63 
REMARK   24  A    between atoms: C_62  and  C_67 
REMARK   25  A    between atoms: C_67  and  C_68 
REMARK   26  A    between atoms: C_68  and  C_69 
REMARK   27  A    between atoms: C_72  and  C_73 
REMARK   28  A    between atoms: C_42  and  C_43 
REMARK       I    between atoms: C_43  and  N_44 
ROOT
HETATM    1  C           0      13.139   9.696   2.293  0.00  0.00     0.241 C 
HETATM    2  O           0      13.266   9.134   1.199  0.00  0.00    -0.271 OA
HETATM    3  N           0      13.211   9.011   3.459  0.00  0.00    -0.346 N 
HETATM    4  H           0      13.066   9.502   4.333  0.00  0.00     0.163 HD
ENDROOT
BRANCH   3   5
HETATM    5  C           0      13.631   7.612   3.467  0.00  0.00     0.176 C 
BRANCH   5   6
HETATM    6  C           0      12.426   6.657   3.495  0.00  0.00     0.036 C 
BRANCH   6   7
HETATM    7  C           0      12.856   5.219   3.183  0.00  0.00     0.023 C 
BRANCH   7   8
HETATM    8  C           0      11.714   4.204   3.209  0.00  0.00     0.138 C 
BRANCH   8   9
HETATM    9  N           0      12.312   2.874   3.284  0.00  0.00    -0.227 N 
HETATM   10  C           0      13.604   2.573   3.180  0.00  0.00     0.665 C 
HETATM   11  N           0      14.527   3.511   2.925  0.00  0.00    -0.235 N 
HETATM   12  N           0      13.961   1.287   3.352  0.00  0.00    -0.235 N 
HETATM   13  H           0      15.510   3.295   2.991  0.00  0.00     0.174 HD
HETATM   14  H           0      14.273   4.484   2.873  0.00  0.00     0.174 HD
HETATM   15  H           0      14.868   0.967   3.050  0.00  0.00     0.174 HD
HETATM   16  H           0      13.191   0.617   3.410  0.00  0.00     0.174 HD
HETATM   17  H           0      11.700   2.050   3.409  0.00  0.00     0.177 HD
ENDBRANCH   8   9
ENDBRANCH   7   8
ENDBRANCH   6   7
ENDBRANCH   5   6
BRANCH   5  18
HETATM   18  C           0      14.680   7.229   2.399  0.00  0.00     0.243 C 
HETATM   19  N           0      15.951   7.708   2.479  0.00  0.00    -0.337 N 
HETATM   20  C           0      16.963   7.231   1.521  0.00  0.00     0.179 C 
HETATM   21  C           0      16.392   8.972   3.108  0.00  0.00     0.127 C 
HETATM   22  C           0      17.969   8.408   1.386  0.00  0.00     0.037 C 
HETATM   23  C           0      17.238   9.611   2.002  0.00  0.00     0.022 C 
HETATM   24  O           0      14.334   6.428   1.527  0.00  0.00    -0.271 OA
BRANCH  20  25
HETATM   25  C           0      17.694   5.943   1.938  0.00  0.00     0.241 C 
HETATM   26  N           0      18.784   5.571   1.219  0.00  0.00    -0.344 N 
HETATM   27  H           0      19.096   6.145   0.440  0.00  0.00     0.163 HD
HETATM   28  O           0      17.259   5.294   2.892  0.00  0.00    -0.271 OA
BRANCH  26  29
HETATM   29  C           0      19.430   4.281   1.415  0.00  0.00     0.200 C 
BRANCH  29  30
HETATM   30  C           0      18.497   3.055   1.404  0.00  0.00     0.242 C 
HETATM   31  N           0      18.974   1.905   0.906  0.00  0.00    -0.354 N 
HETATM   32  H           0      19.934   1.797   0.586  0.00  0.00     0.162 HD
HETATM   33  O           0      17.345   3.179   1.848  0.00  0.00    -0.271 OA
BRANCH  31  34
HETATM   34  C           0      18.217   0.668   0.882  0.00  0.00     0.203 C 
BRANCH  34  35
HETATM   35  C           0      17.902   0.197   2.331  0.00  0.00     0.307 C 
HETATM   36  O           0      16.683   0.160   2.652  0.00  0.00    -0.186 OA
HETATM   37  O           0      18.904  -0.098   3.025  0.00  0.00    -0.186 OA
ENDBRANCH  34  35
ENDBRANCH  31  34
ENDBRANCH  29  30
BRANCH  29  38
HETATM   38  C           0      20.270   4.273   2.710  0.00  0.00     0.199 C 
BRANCH  38  39
HETATM   39  O           0      20.517   5.574   3.212  0.00  0.00    -0.398 OA
HETATM   40  H           0      19.762   6.153   3.012  0.00  0.00     0.209 HD
ENDBRANCH  38  39
ENDBRANCH  29  38
ENDBRANCH  26  29
ENDBRANCH  20  25
ENDBRANCH   5  18
ENDBRANCH   3   5
BRANCH   1  41
HETATM   41  C           0      12.941  11.223   2.388  0.00  0.00     0.185 C 
BRANCH  41  42
HETATM   42  C           0      11.891  11.745   1.388  0.00  0.00     0.137 C 
BRANCH  42  43
HETATM   43  C           0      10.706  12.472   2.023  0.00  0.00     0.217 C 
HETATM   44  N           0       9.914  13.114   1.138  0.00  0.00    -0.370 N 
HETATM   45  H           0       9.177  13.696   1.512  0.00  0.00     0.159 HD
HETATM   46  H           0      10.132  13.168   0.135  0.00  0.00     0.159 HD
HETATM   47  O           0      10.528  12.489   3.244  0.00  0.00    -0.274 OA
ENDBRANCH  42  43
ENDBRANCH  41  42
BRANCH  41  48
HETATM   48  N           0      14.177  11.955   2.139  0.00  0.00    -0.346 N 
HETATM   49  H           0      14.923  11.481   1.646  0.00  0.00     0.163 HD
HETATM   50  C           0      14.421  13.195   2.610  0.00  0.00     0.241 C 
HETATM   51  O           0      13.625  13.820   3.321  0.00  0.00    -0.271 OA
BRANCH  50  52
HETATM   52  C           0      15.758  13.839   2.194  0.00  0.00     0.177 C 
BRANCH  52  53
HETATM   53  N           0      15.630  15.270   1.936  0.00  0.00    -0.346 N 
HETATM   54  H           0      14.705  15.664   1.822  0.00  0.00     0.163 HD
HETATM   55  C           0      16.703  16.105   1.971  0.00  0.00     0.236 C 
HETATM   56  O           0      17.843  15.721   2.219  0.00  0.00    -0.272 OA
BRANCH  55  57
HETATM   57  C           0      16.424  17.591   1.707  0.00  0.00     0.225 C 
BRANCH  57  58
HETATM   58  N           0      15.330  18.147   2.501  0.00  0.00    -0.351 N 
HETATM   59  H           0      15.580  18.678   3.323  0.00  0.00     0.163 HD
HETATM   60  C           0      14.082  18.191   1.976  0.00  0.00     0.248 C 
HETATM   61  O           0      13.827  17.690   0.876  0.00  0.00    -0.271 OA
BRANCH  60  62
HETATM   62  C           0      12.933  18.842   2.755  0.00  0.00     0.275 C 
BRANCH  62  63
HETATM   63  N           0      12.806  20.334   2.492  0.00  0.00    -0.066 N 
HETATM   64  H           0      13.701  20.765   2.235  0.00  0.00     0.275 HD
HETATM   65  H           0      12.120  20.570   1.769  0.00  0.00     0.275 HD
HETATM   66  H           0      12.490  20.804   3.346  0.00  0.00     0.275 HD
ENDBRANCH  62  63
BRANCH  62  67
HETATM   67  C           0      11.560  18.182   2.549  0.00  0.00     0.053 C 
BRANCH  67  68
HETATM   68  C           0      10.461  18.701   3.484  0.00  0.00     0.115 C 
BRANCH  68  69
HETATM   69  C           0       9.382  19.603   2.854  0.00  0.00     0.172 C 
HETATM   70  O           0       8.303  19.082   2.467  0.00  0.00    -0.648 OA
HETATM   71  O           0       9.679  20.837   2.751  0.00  0.00    -0.648 OA
ENDBRANCH  68  69
ENDBRANCH  67  68
ENDBRANCH  62  67
ENDBRANCH  60  62
ENDBRANCH  57  58
ENDBRANCH  55  57
ENDBRANCH  52  53
BRANCH  52  72
HETATM   72  C           0      16.856  13.614   3.258  0.00  0.00     0.038 C 
BRANCH  72  73
HETATM   73  C           0      18.121  12.858   2.808  0.00  0.00    -0.020 C 
HETATM   74  C           0      18.211  12.718   1.282  0.00  0.00     0.009 C 
HETATM   75  C           0      19.361  13.573   3.367  0.00  0.00     0.009 C 
ENDBRANCH  72  73
ENDBRANCH  52  72
ENDBRANCH  50  52
ENDBRANCH  41  48
ENDBRANCH   1  41
TORSDOF 28
ENDMDL
MODEL 9
REMARK VINA RESULT:       0.8     31.746     40.665
REMARK  28 active torsions:
REMARK  status: ('A' for Active; 'I' for Inactive)
REMARK       I    between atoms: C_1  and  N_3 
REMARK    1  A    between atoms: C_1  and  C_41 
REMARK    2  A    between atoms: N_3  and  C_5 
REMARK    3  A    between atoms: C_5  and  C_6 
REMARK    4  A    between atoms: C_5  and  C_18 
REMARK       I    between atoms: C_18  and  N_19 
REMARK    5  A    between atoms: C_20  and  C_25 
REMARK       I    between atoms: C_25  and  N_26 
REMARK    6  A    between atoms: N_26  and  C_29 
REMARK    7  A    between atoms: C_29  and  C_30 
REMARK    8  A    between atoms: C_29  and  C_38 
REMARK       I    between atoms: C_30  and  N_31 
REMARK    9  A    between atoms: N_31  and  C_34 
REMARK   10  A    between atoms: C_34  and  C_35 
REMARK   11  A    between atoms: C_38  and  O_39 
REMARK   12  A    between atoms: C_6  and  C_7 
REMARK   13  A    between atoms: C_7  and  C_8 
REMARK   14  A    between atoms: C_8  and  N_9 
REMARK       I    between atoms: N_9  and  C_10 
REMARK       I    between atoms: C_10  and  N_12 
REMARK   15  A    between atoms: C_41  and  C_42 
REMARK   16  A    between atoms: C_41  and  N_48 
REMARK       I    between atoms: N_48  and  C_50 
REMARK   17  A    between atoms: C_50  and  C_52 
REMARK   18  A    between atoms: C_52  and  N_53 
REMARK   19  A    between atoms: C_52  and  C_72 
REMARK       I    between atoms: N_53  and  C_55 
REMARK   20  A    between atoms: C_55  and  C_57 
REMARK   21  A    between atoms: C_57  and  N_58 
REMARK       I    between atoms: N_58  and  C_60 
REMARK   22  A    between atoms: C_60  and  C_62 
REMARK   23  A    between atoms: C_62  and  N_63 
REMARK   24  A    between atoms: C_62  and  C_67 
REMARK   25  A    between atoms: C_67  and  C_68 
REMARK   26  A    between atoms: C_68  and  C_69 
REMARK   27  A    between atoms: C_72  and  C_73 
REMARK   28  A    between atoms: C_42  and  C_43 
REMARK       I    between atoms: C_43  and  N_44 
ROOT
HETATM    1  C           0      11.266 -30.715   2.044  0.00  0.00     0.241 C 
HETATM    2  O           0      11.833 -31.104   1.016  0.00  0.00    -0.271 OA
HETATM    3  N           0      10.242 -31.406   2.598  0.00  0.00    -0.346 N 
HETATM    4  H           0       9.780 -31.036   3.420  0.00  0.00     0.163 HD
ENDROOT
BRANCH   3   5
HETATM    5  C           0       9.900 -32.738   2.104  0.00  0.00     0.176 C 
BRANCH   5   6
HETATM    6  C           0      10.286 -33.834   3.112  0.00  0.00     0.036 C 
BRANCH   6   7
HETATM    7  C           0      11.205 -34.876   2.465  0.00  0.00     0.023 C 
BRANCH   7   8
HETATM    8  C           0      12.606 -34.938   3.073  0.00  0.00     0.138 C 
BRANCH   8   9
HETATM    9  N           0      13.318 -33.731   2.659  0.00  0.00    -0.227 N 
HETATM   10  C           0      14.610 -33.469   2.832  0.00  0.00     0.665 C 
HETATM   11  N           0      15.418 -34.311   3.491  0.00  0.00    -0.235 N 
HETATM   12  N           0      15.089 -32.326   2.308  0.00  0.00    -0.235 N 
HETATM   13  H           0      16.417 -34.170   3.490  0.00  0.00     0.174 HD
HETATM   14  H           0      15.080 -35.203   3.815  0.00  0.00     0.174 HD
HETATM   15  H           0      15.981 -31.964   2.610  0.00  0.00     0.174 HD
HETATM   16  H           0      14.389 -31.679   1.939  0.00  0.00     0.174 HD
HETATM   17  H           0      12.793 -32.968   2.199  0.00  0.00     0.177 HD
ENDBRANCH   8   9
ENDBRANCH   7   8
ENDBRANCH   6   7
ENDBRANCH   5   6
BRANCH   5  18
HETATM   18  C           0       8.461 -32.894   1.563  0.00  0.00     0.243 C 
HETATM   19  N           0       7.776 -34.054   1.749  0.00  0.00    -0.337 N 
HETATM   20  C           0       6.365 -34.133   1.333  0.00  0.00     0.179 C 
HETATM   21  C           0       8.342 -35.410   1.910  0.00  0.00     0.127 C 
HETATM   22  C           0       6.135 -35.631   0.988  0.00  0.00     0.037 C 
HETATM   23  C           0       7.550 -36.222   0.879  0.00  0.00     0.022 C 
HETATM   24  O           0       7.949 -31.908   1.025  0.00  0.00    -0.271 OA
BRANCH  20  25
HETATM   25  C           0       5.350 -33.663   2.390  0.00  0.00     0.241 C 
HETATM   26  N           0       4.507 -32.654   2.055  0.00  0.00    -0.344 N 
HETATM   27  H           0       4.554 -32.243   1.126  0.00  0.00     0.163 HD
HETATM   28  O           0       5.351 -34.205   3.498  0.00  0.00    -0.271 OA
BRANCH  26  29
HETATM   29  C           0       3.643 -32.016   3.039  0.00  0.00     0.200 C 
BRANCH  29  30
HETATM   30  C           0       2.164 -31.861   2.633  0.00  0.00     0.242 C 
HETATM   31  N           0       1.528 -30.738   2.992  0.00  0.00    -0.354 N 
HETATM   32  H           0       1.990 -29.969   3.472  0.00  0.00     0.162 HD
HETATM   33  O           0       1.622 -32.779   1.997  0.00  0.00    -0.271 OA
BRANCH  31  34
HETATM   34  C           0       0.153 -30.447   2.631  0.00  0.00     0.203 C 
BRANCH  34  35
HETATM   35  C           0       0.010 -28.962   2.191  0.00  0.00     0.307 C 
HETATM   36  O           0      -1.157 -28.570   1.918  0.00  0.00    -0.186 OA
HETATM   37  O           0       1.083 -28.311   2.156  0.00  0.00    -0.186 OA
ENDBRANCH  34  35
ENDBRANCH  31  34
ENDBRANCH  29  30
BRANCH  29  38
HETATM   38  C           0       4.205 -30.642   3.462  0.00  0.00     0.199 C 
BRANCH  38  39
HETATM   39  O           0       5.579 -30.493   3.155  0.00  0.00    -0.398 OA
HETATM   40  H           0       5.718 -30.615   2.200  0.00  0.00     0.209 HD
ENDBRANCH  38  39
ENDBRANCH  29  38
ENDBRANCH  26  29
ENDBRANCH  20  25
ENDBRANCH   5  18
ENDBRANCH   3   5
BRANCH   1  41
HETATM   41  C           0      11.730 -29.440   2.779  0.00  0.00     0.185 C 
BRANCH  41  42
HETATM   42  C           0      10.559 -28.506   3.138  0.00  0.00     0.137 C 
BRANCH  42  43
HETATM   43  C           0       9.638 -28.153   1.970  0.00  0.00     0.217 C 
HETATM   44  N           0       9.051 -29.221   1.387  0.00  0.00    -0.370 N 
HETATM   45  H           0       8.516 -29.054   0.547  0.00  0.00     0.159 HD
HETATM   46  H           0       9.262 -30.188   1.661  0.00  0.00     0.159 HD
HETATM   47  O           0       9.488 -26.991   1.585  0.00  0.00    -0.274 OA
ENDBRANCH  42  43
ENDBRANCH  41  42
BRANCH  41  48
HETATM   48  N           0      12.677 -28.663   1.988  0.00  0.00    -0.346 N 
HETATM   49  H           0      13.293 -29.159   1.357  0.00  0.00     0.163 HD
HETATM   50  C           0      12.845 -27.331   2.117  0.00  0.00     0.241 C 
HETATM   51  O           0      12.225 -26.646   2.940  0.00  0.00    -0.271 OA
BRANCH  50  52
HETATM   52  C           0      13.845 -26.667   1.152  0.00  0.00     0.177 C 
BRANCH  52  53
HETATM   53  N           0      14.163 -25.295   1.537  0.00  0.00    -0.346 N 
HETATM   54  H           0      15.132 -25.040   1.679  0.00  0.00     0.163 HD
HETATM   55  C           0      13.212 -24.324   1.588  0.00  0.00     0.236 C 
HETATM   56  O           0      12.031 -24.528   1.316  0.00  0.00    -0.272 OA
BRANCH  55  57
HETATM   57  C           0      13.686 -22.919   1.984  0.00  0.00     0.225 C 
BRANCH  57  58
HETATM   58  N           0      15.139 -22.767   2.027  0.00  0.00    -0.351 N 
HETATM   59  H           0      15.695 -23.542   1.695  0.00  0.00     0.163 HD
HETATM   60  C           0      15.674 -21.538   2.218  0.00  0.00     0.248 C 
HETATM   61  O           0      14.963 -20.554   2.448  0.00  0.00    -0.271 OA
BRANCH  60  62
HETATM   62  C           0      17.193 -21.336   2.187  0.00  0.00     0.275 C 
BRANCH  62  63
HETATM   63  N           0      17.676 -20.642   0.924  0.00  0.00    -0.066 N 
HETATM   64  H           0      17.021 -20.750   0.141  0.00  0.00     0.275 HD
HETATM   65  H           0      17.863 -19.643   1.046  0.00  0.00     0.275 HD
HETATM   66  H           0      18.562 -21.061   0.623  0.00  0.00     0.275 HD
ENDBRANCH  62  63
BRANCH  62  67
HETATM   67  C           0      17.771 -20.603   3.409  0.00  0.00     0.053 C 
BRANCH  67  68
HETATM   68  C           0      18.543 -19.322   3.072  0.00  0.00     0.115 C 
BRANCH  68  69
HETATM   69  C           0      20.078 -19.436   2.990  0.00  0.00     0.172 C 
HETATM   70  O           0      20.750 -18.410   2.704  0.00  0.00    -0.648 OA
HETATM   71  O           0      20.562 -20.595   3.202  0.00  0.00    -0.648 OA
ENDBRANCH  68  69
ENDBRANCH  67  68
ENDBRANCH  62  67
ENDBRANCH  60  62
ENDBRANCH  57  58
ENDBRANCH  55  57
ENDBRANCH  52  53
BRANCH  52  72
HETATM   72  C           0      15.158 -27.477   1.044  0.00  0.00     0.038 C 
BRANCH  72  73
HETATM   73  C           0      16.026 -27.572   2.313  0.00  0.00    -0.020 C 
HETATM   74  C           0      16.640 -28.967   2.503  0.00  0.00     0.009 C 
HETATM   75  C           0      17.121 -26.495   2.258  0.00  0.00     0.009 C 
ENDBRANCH  72  73
ENDBRANCH  52  72
ENDBRANCH  50  52
ENDBRANCH  41  48
ENDBRANCH   1  41
TORSDOF 28
ENDMDL
