MODEL 1
REMARK VINA RESULT:      -6.8      0.000      0.000
REMARK WARNING: 32 MAX_TORS EXCEEDED!!!
REMARK  38 active torsions:
REMARK  status: ('A' for Active; 'I' for Inactive)
REMARK    1  A    between atoms: N_1  and  CA_2 
REMARK    2  A    between atoms: CA_2  and  CB_5 
REMARK    3  A    between atoms: CA_2  and  C_3 
REMARK       I    between atoms: C_3  and  N_17 
REMARK    4  A    between atoms: CB_5  and  CG_6 
REMARK    5  A    between atoms: CZ_10  and  OH_11 
REMARK    6  A    between atoms: N_17  and  CA_18 
REMARK    7  A    between atoms: CA_18  and  CB_21 
REMARK    8  A    between atoms: CA_18  and  C_19 
REMARK       I    between atoms: C_19  and  N_26 
REMARK    9  A    between atoms: CB_21  and  CG_22 
REMARK   10  A    between atoms: CA_27  and  C_28 
REMARK       I    between atoms: C_28  and  N_33 
REMARK   11  A    between atoms: N_33  and  CA_34 
REMARK   12  A    between atoms: CA_34  and  C_35 
REMARK   13  A    between atoms: CA_34  and  CB_37 
REMARK       I    between atoms: C_35  and  N_43 
REMARK   14  A    between atoms: CB_37  and  CG_38 
REMARK   15  A    between atoms: CG_38  and  CD_39 
REMARK   16  A    between atoms: N_43  and  CA_44 
REMARK   17  A    between atoms: CA_44  and  CB_47 
REMARK   18  A    between atoms: CA_44  and  C_45 
REMARK       I    between atoms: C_45  and  N_57 
REMARK   19  A    between atoms: CB_47  and  CG_48 
REMARK   20  A    between atoms: CZ_52  and  OH_53 
REMARK   21  A    between atoms: N_57  and  CA_58 
REMARK   22  A    between atoms: CA_58  and  CB_61 
REMARK   23  A    between atoms: CA_58  and  C_59 
REMARK       I    between atoms: C_59  and  N_74 
REMARK   24  A    between atoms: CB_61  and  CG_62 
REMARK   25  A    between atoms: CG_62  and  CD_63 
REMARK   26  A    between atoms: CD_63  and  NE_64 
REMARK       I    between atoms: NE_64  and  CZ_65 
REMARK       I    between atoms: CZ_65  and  NH2_66 
REMARK   27  A    between atoms: N_74  and  CA_75 
REMARK   28  A    between atoms: CA_75  and  CB_78 
REMARK   29  A    between atoms: CA_75  and  C_76 
REMARK       I    between atoms: C_76  and  N_85 
REMARK   30  A    between atoms: CB_78  and  CG_79 
REMARK       I    between atoms: CG_79  and  ND2_80 
REMARK   31  A    between atoms: N_85  and  CA_86 
REMARK   32  A    between atoms: CA_86  and  CB_89 
REMARK   33  A    between atoms: CA_86  and  C_87 
REMARK       I    between atoms: C_87  and  N_97 
REMARK   34  A    between atoms: CB_89  and  CG_90 
REMARK   35  A    between atoms: N_97  and  CA_98 
REMARK   36  A    between atoms: CA_98  and  C_99 
REMARK   37  A    between atoms: CA_98  and  CB_102 
REMARK   38  A    between atoms: CB_102  and  CG_103 
ROOT
ATOM      1  C   TYR A   5      -5.290 -17.298   9.594  1.00  0.00     0.241 C 
ATOM      2  O   TYR A   5      -4.221 -17.151  10.181  1.00  0.00    -0.271 OA
ATOM      3  N   ARG A   6      -5.542 -18.401   8.868  1.00  0.00    -0.346 N 
ATOM      4  H   ARG A   6      -6.453 -18.469   8.421  1.00  0.00     0.163 HD
ENDROOT
BRANCH   3   5
ATOM      5  CA  ARG A   6      -4.600 -19.536   8.738  1.00  0.00     0.176 C 
BRANCH   5   6
ATOM      6  CB  ARG A   6      -5.406 -20.825   8.478  1.00  0.00     0.036 C 
BRANCH   6   7
ATOM      7  CG  ARG A   6      -5.000 -21.994   9.405  1.00  0.00     0.023 C 
BRANCH   7   8
ATOM      8  CD  ARG A   6      -4.475 -21.536  10.774  1.00  0.00     0.138 C 
BRANCH   8   9
ATOM      9  NE  ARG A   6      -3.013 -21.724  10.900  1.00  0.00    -0.227 N 
ATOM     10  HE  ARG A   6      -2.674 -22.648  10.698  1.00  0.00     0.177 HD
ATOM     11  CZ  ARG A   6      -2.093 -20.803  11.138  1.00  0.00     0.665 C 
ATOM     12  NH2 ARG A   6      -0.839 -21.127  11.088  1.00  0.00    -0.235 N 
ATOM     13  NH1 ARG A   6      -2.368 -19.559  11.412  1.00  0.00    -0.235 N 
ATOM     14 1HH2 ARG A   6      -0.599 -21.973  10.607  1.00  0.00     0.174 HD
ATOM     15 2HH2 ARG A   6      -0.181 -20.377  10.950  1.00  0.00     0.174 HD
ATOM     16 1HH1 ARG A   6      -3.300 -19.224  11.247  1.00  0.00     0.174 HD
ATOM     17 2HH1 ARG A   6      -1.624 -18.896  11.528  1.00  0.00     0.174 HD
ENDBRANCH   8   9
ENDBRANCH   7   8
ENDBRANCH   6   7
ENDBRANCH   5   6
BRANCH   5  18
ATOM     18  C   ARG A   6      -3.512 -19.328   7.661  1.00  0.00     0.241 C 
ATOM     19  N   ASN A   7      -2.410 -18.624   7.959  1.00  0.00    -0.346 N 
ATOM     20  H   ASN A   7      -2.265 -18.336   8.918  1.00  0.00     0.163 HD
ATOM     21  O   ARG A   6      -3.737 -19.706   6.519  1.00  0.00    -0.271 OA
BRANCH  19  22
ATOM     22  CA  ASN A   7      -1.295 -18.477   7.003  1.00  0.00     0.185 C 
BRANCH  22  23
ATOM     23  CB  ASN A   7      -0.861 -17.003   6.882  1.00  0.00     0.137 C 
BRANCH  23  24
ATOM     24  CG  ASN A   7      -1.764 -15.943   7.478  1.00  0.00     0.217 C 
ATOM     25  ND2 ASN A   7      -1.138 -14.946   8.067  1.00  0.00    -0.370 N 
ATOM     26 2HD2 ASN A   7      -0.147 -15.032   8.281  1.00  0.00     0.159 HD
ATOM     27 1HD2 ASN A   7      -1.689 -14.189   8.412  1.00  0.00     0.159 HD
ATOM     28  OD1 ASN A   7      -2.962 -15.849   7.227  1.00  0.00    -0.274 OA
ENDBRANCH  23  24
ENDBRANCH  22  23
BRANCH  22  29
ATOM     29  C   ASN A   7      -0.054 -19.321   7.369  1.00  0.00     0.241 C 
ATOM     30  N   PHE A   8       0.954 -19.367   6.486  1.00  0.00    -0.346 N 
ATOM     31  H   PHE A   8       0.832 -18.895   5.596  1.00  0.00     0.163 HD
ATOM     32  O   ASN A   7      -0.082 -20.022   8.380  1.00  0.00    -0.271 OA
BRANCH  30  33
ATOM     33  CA  PHE A   8       2.239 -20.041   6.730  1.00  0.00     0.180 C 
BRANCH  33  34
ATOM     34  CB  PHE A   8       2.812 -19.478   8.048  1.00  0.00     0.073 C 
BRANCH  34  35
ATOM     35  CG  PHE A   8       3.985 -18.528   7.873  1.00  0.00    -0.056 A 
ATOM     36  CD1 PHE A   8       3.805 -17.292   7.223  1.00  0.00     0.007 A 
ATOM     37  CE1 PHE A   8       4.915 -16.475   6.944  1.00  0.00     0.001 A 
ATOM     38  CZ  PHE A   8       6.206 -16.890   7.317  1.00  0.00     0.000 A 
ATOM     39  CE2 PHE A   8       6.383 -18.109   7.996  1.00  0.00     0.001 A 
ATOM     40  CD2 PHE A   8       5.273 -18.923   8.280  1.00  0.00     0.007 A 
ENDBRANCH  34  35
ENDBRANCH  33  34
BRANCH  33  41
ATOM     41  C   PHE A   8       2.120 -21.585   6.747  1.00  0.00     0.241 C 
ATOM     42  N   TRP A   9       1.786 -22.182   5.592  1.00  0.00    -0.344 N 
ATOM     43  H   TRP A   9       1.651 -21.587   4.790  1.00  0.00     0.163 HD
ATOM     44  O   PHE A   8       2.283 -22.195   7.806  1.00  0.00    -0.271 OA
BRANCH  42  45
ATOM     45  CA  TRP A   9       1.538 -23.618   5.376  1.00  0.00     0.190 C 
BRANCH  45  46
ATOM     46  C   TRP A   9       2.805 -24.474   5.153  1.00  0.00     0.197 C 
ATOM     47  OXT TRP A   9       3.903 -23.967   5.500  1.00  0.00    -0.646 OA
ATOM     48  O   TRP A   9       2.704 -25.404   4.325  1.00  0.00    -0.646 OA
ENDBRANCH  45  46
BRANCH  45  49
ATOM     49  CB  TRP A   9       0.571 -23.743   4.189  1.00  0.00     0.077 C 
BRANCH  49  50
ATOM     50  CG  TRP A   9      -0.800 -23.216   4.463  1.00  0.00    -0.028 A 
ATOM     51  CD1 TRP A   9      -1.149 -22.591   5.605  1.00  0.00     0.096 A 
ATOM     52  NE1 TRP A   9      -2.424 -22.079   5.492  1.00  0.00    -0.365 N 
ATOM     53  HE1 TRP A   9      -2.792 -21.414   6.150  1.00  0.00     0.165 HD
ATOM     54  CE2 TRP A   9      -2.938 -22.299   4.233  1.00  0.00     0.042 A 
ATOM     55  CD2 TRP A   9      -1.922 -23.028   3.548  1.00  0.00    -0.002 A 
ATOM     56  CZ2 TRP A   9      -4.128 -21.894   3.613  1.00  0.00     0.030 A 
ATOM     57  CE3 TRP A   9      -2.158 -23.326   2.186  1.00  0.00     0.014 A 
ATOM     58  CZ3 TRP A   9      -3.342 -22.908   1.547  1.00  0.00     0.001 A 
ATOM     59  CH2 TRP A   9      -4.327 -22.196   2.256  1.00  0.00     0.002 A 
ENDBRANCH  49  50
ENDBRANCH  45  49
ENDBRANCH  42  45
ENDBRANCH  33  41
ENDBRANCH  30  33
ENDBRANCH  22  29
ENDBRANCH  19  22
ENDBRANCH   5  18
ENDBRANCH   3   5
BRANCH   1  60
ATOM     60  CA  TYR A   5      -6.228 -16.087   9.450  1.00  0.00     0.180 C 
BRANCH  60  61
ATOM     61  N   TYR A   5      -5.789 -14.945  10.260  1.00  0.00    -0.346 N 
ATOM     62  H   TYR A   5      -5.136 -14.290   9.855  1.00  0.00     0.163 HD
ATOM     63  C   GLU A   4      -6.135 -14.798  11.550  1.00  0.00     0.241 C 
ATOM     64  O   GLU A   4      -6.771 -15.669  12.136  1.00  0.00    -0.271 OA
BRANCH  63  65
ATOM     65  CA  GLU A   4      -5.442 -13.684  12.348  1.00  0.00     0.177 C 
BRANCH  65  66
ATOM     66  N   GLU A   4      -4.272 -13.157  11.623  1.00  0.00    -0.346 N 
ATOM     67  H   GLU A   4      -4.458 -12.493  10.882  1.00  0.00     0.163 HD
ATOM     68  C   PRO A   3      -3.044 -13.684  11.661  1.00  0.00     0.241 C 
ATOM     69  O   PRO A   3      -2.754 -14.640  12.361  1.00  0.00    -0.271 OA
BRANCH  68  70
ATOM     70  CA  PRO A   3      -1.947 -13.038  10.803  1.00  0.00     0.179 C 
ATOM     71  N   PRO A   3      -2.369 -11.929   9.920  1.00  0.00    -0.337 N 
ATOM     72  CD  PRO A   3      -1.505 -10.777  10.165  1.00  0.00     0.127 C 
ATOM     73  C   ASP A   2      -3.245 -12.094   8.894  1.00  0.00     0.243 C 
ATOM     74  CG  PRO A   3      -0.259 -11.339  10.848  1.00  0.00     0.022 C 
ATOM     75  CB  PRO A   3      -0.839 -12.464  11.699  1.00  0.00     0.037 C 
ATOM     76  O   ASP A   2      -3.870 -13.156   8.828  1.00  0.00    -0.271 OA
BRANCH  73  77
ATOM     77  CA  ASP A   2      -3.837 -10.875   8.103  1.00  0.00     0.186 C 
BRANCH  77  78
ATOM     78  CB  ASP A   2      -4.762  -9.958   8.920  1.00  0.00     0.147 C 
BRANCH  78  79
ATOM     79  CG  ASP A   2      -4.806  -8.556   8.336  1.00  0.00     0.175 C 
ATOM     80  OD2 ASP A   2      -3.702  -7.962   8.319  1.00  0.00    -0.648 OA
ATOM     81  OD1 ASP A   2      -5.803  -8.279   7.658  1.00  0.00    -0.648 OA
ENDBRANCH  78  79
ENDBRANCH  77  78
BRANCH  77  82
ATOM     82  N   ASP A   2      -4.524 -11.164   6.818  1.00  0.00    -0.345 N 
ATOM     83  H   ASP A   2      -3.901 -11.190   6.025  1.00  0.00     0.163 HD
ATOM     84  C   TYR A   1      -5.735 -11.740   6.731  1.00  0.00     0.249 C 
ATOM     85  O   TYR A   1      -6.468 -11.845   7.686  1.00  0.00    -0.271 OA
BRANCH  84  86
ATOM     86  CA  TYR A   1      -6.396 -11.962   5.387  1.00  0.00     0.278 C 
BRANCH  86  87
ATOM     87  N   TYR A   1      -5.869 -11.039   4.368  1.00  0.00    -0.066 N 
ATOM     88  H2  TYR A   1      -4.863 -10.984   4.432  1.00  0.00     0.275 HD
ATOM     89  H1  TYR A   1      -6.268 -10.122   4.517  1.00  0.00     0.275 HD
ATOM     90  H3  TYR A   1      -6.129 -11.373   3.447  1.00  0.00     0.275 HD
ENDBRANCH  86  87
BRANCH  86  91
ATOM     91  CB  TYR A   1      -6.437 -13.416   4.918  1.00  0.00     0.081 C 
BRANCH  91  92
ATOM     92  CG  TYR A   1      -7.795 -13.798   4.356  1.00  0.00    -0.056 A 
ATOM     93  CD2 TYR A   1      -8.952 -13.150   4.845  1.00  0.00     0.010 A 
ATOM     94  CE2 TYR A   1     -10.221 -13.512   4.357  1.00  0.00     0.037 A 
ATOM     95  CZ  TYR A   1     -10.337 -14.515   3.368  1.00  0.00     0.065 A 
ATOM     96  CE1 TYR A   1      -9.182 -15.135   2.854  1.00  0.00     0.037 A 
ATOM     97  CD1 TYR A   1      -7.904 -14.779   3.343  1.00  0.00     0.010 A 
BRANCH  95  98
ATOM     98  OH  TYR A   1     -11.554 -14.881   2.905  1.00  0.00    -0.361 OA
ATOM     99  HH  TYR A   1     -11.605 -14.818   1.951  1.00  0.00     0.217 HD
ENDBRANCH  95  98
ENDBRANCH  91  92
ENDBRANCH  86  91
ENDBRANCH  84  86
ENDBRANCH  77  82
ENDBRANCH  73  77
ENDBRANCH  68  70
ENDBRANCH  65  66
BRANCH  65 100
ATOM    100  CB  GLU A   4      -6.417 -12.524  12.643  1.00  0.00     0.045 C 
BRANCH 100 101
ATOM    101  CG  GLU A   4      -7.261 -12.675  13.919  1.00  0.00     0.116 C 
BRANCH 101 102
ATOM    102  CD  GLU A   4      -8.733 -12.985  13.596  1.00  0.00     0.172 C 
ATOM    103  OE2 GLU A   4      -9.132 -14.130  13.901  1.00  0.00    -0.648 OA
ATOM    104  OE1 GLU A   4      -9.302 -12.236  12.762  1.00  0.00    -0.648 OA
ENDBRANCH 101 102
ENDBRANCH 100 101
ENDBRANCH  65 100
ENDBRANCH  63  65
ENDBRANCH  60  61
BRANCH  60 105
ATOM    105  CB  TYR A   5      -6.399 -15.670   7.976  1.00  0.00     0.073 C 
BRANCH 105 106
ATOM    106  CG  TYR A   5      -7.770 -15.921   7.358  1.00  0.00    -0.056 A 
ATOM    107  CD1 TYR A   5      -7.943 -16.915   6.365  1.00  0.00     0.010 A 
ATOM    108  CE1 TYR A   5      -9.245 -17.245   5.916  1.00  0.00     0.037 A 
ATOM    109  CZ  TYR A   5     -10.363 -16.576   6.448  1.00  0.00     0.065 A 
ATOM    110  CE2 TYR A   5     -10.189 -15.564   7.416  1.00  0.00     0.037 A 
ATOM    111  CD2 TYR A   5      -8.898 -15.243   7.875  1.00  0.00     0.010 A 
BRANCH 109 112
ATOM    112  OH  TYR A   5     -11.609 -16.909   6.040  1.00  0.00    -0.361 OA
ATOM    113  HH  TYR A   5     -11.915 -16.268   5.395  1.00  0.00     0.217 HD
ENDBRANCH 109 112
ENDBRANCH 105 106
ENDBRANCH  60 105
ENDBRANCH   1  60
TORSDOF 38
ENDMDL
MODEL 2
REMARK VINA RESULT:      -6.7      2.716     11.103
REMARK WARNING: 32 MAX_TORS EXCEEDED!!!
REMARK  38 active torsions:
REMARK  status: ('A' for Active; 'I' for Inactive)
REMARK    1  A    between atoms: N_1  and  CA_2 
REMARK    2  A    between atoms: CA_2  and  CB_5 
REMARK    3  A    between atoms: CA_2  and  C_3 
REMARK       I    between atoms: C_3  and  N_17 
REMARK    4  A    between atoms: CB_5  and  CG_6 
REMARK    5  A    between atoms: CZ_10  and  OH_11 
REMARK    6  A    between atoms: N_17  and  CA_18 
REMARK    7  A    between atoms: CA_18  and  CB_21 
REMARK    8  A    between atoms: CA_18  and  C_19 
REMARK       I    between atoms: C_19  and  N_26 
REMARK    9  A    between atoms: CB_21  and  CG_22 
REMARK   10  A    between atoms: CA_27  and  C_28 
REMARK       I    between atoms: C_28  and  N_33 
REMARK   11  A    between atoms: N_33  and  CA_34 
REMARK   12  A    between atoms: CA_34  and  C_35 
REMARK   13  A    between atoms: CA_34  and  CB_37 
REMARK       I    between atoms: C_35  and  N_43 
REMARK   14  A    between atoms: CB_37  and  CG_38 
REMARK   15  A    between atoms: CG_38  and  CD_39 
REMARK   16  A    between atoms: N_43  and  CA_44 
REMARK   17  A    between atoms: CA_44  and  CB_47 
REMARK   18  A    between atoms: CA_44  and  C_45 
REMARK       I    between atoms: C_45  and  N_57 
REMARK   19  A    between atoms: CB_47  and  CG_48 
REMARK   20  A    between atoms: CZ_52  and  OH_53 
REMARK   21  A    between atoms: N_57  and  CA_58 
REMARK   22  A    between atoms: CA_58  and  CB_61 
REMARK   23  A    between atoms: CA_58  and  C_59 
REMARK       I    between atoms: C_59  and  N_74 
REMARK   24  A    between atoms: CB_61  and  CG_62 
REMARK   25  A    between atoms: CG_62  and  CD_63 
REMARK   26  A    between atoms: CD_63  and  NE_64 
REMARK       I    between atoms: NE_64  and  CZ_65 
REMARK       I    between atoms: CZ_65  and  NH2_66 
REMARK   27  A    between atoms: N_74  and  CA_75 
REMARK   28  A    between atoms: CA_75  and  CB_78 
REMARK   29  A    between atoms: CA_75  and  C_76 
REMARK       I    between atoms: C_76  and  N_85 
REMARK   30  A    between atoms: CB_78  and  CG_79 
REMARK       I    between atoms: CG_79  and  ND2_80 
REMARK   31  A    between atoms: N_85  and  CA_86 
REMARK   32  A    between atoms: CA_86  and  CB_89 
REMARK   33  A    between atoms: CA_86  and  C_87 
REMARK       I    between atoms: C_87  and  N_97 
REMARK   34  A    between atoms: CB_89  and  CG_90 
REMARK   35  A    between atoms: N_97  and  CA_98 
REMARK   36  A    between atoms: CA_98  and  C_99 
REMARK   37  A    between atoms: CA_98  and  CB_102 
REMARK   38  A    between atoms: CB_102  and  CG_103 
ROOT
ATOM      1  C   TYR A   5       0.538 -17.378   8.627  1.00  0.00     0.241 C 
ATOM      2  O   TYR A   5       1.280 -16.816   9.429  1.00  0.00    -0.271 OA
ATOM      3  N   ARG A   6      -0.745 -17.002   8.482  1.00  0.00    -0.346 N 
ATOM      4  H   ARG A   6      -1.302 -17.496   7.788  1.00  0.00     0.163 HD
ENDROOT
BRANCH   3   5
ATOM      5  CA  ARG A   6      -1.365 -15.880   9.222  1.00  0.00     0.176 C 
BRANCH   5   6
ATOM      6  CB  ARG A   6      -1.535 -14.684   8.264  1.00  0.00     0.036 C 
BRANCH   6   7
ATOM      7  CG  ARG A   6      -0.781 -13.417   8.731  1.00  0.00     0.023 C 
BRANCH   7   8
ATOM      8  CD  ARG A   6      -0.491 -13.400  10.240  1.00  0.00     0.138 C 
BRANCH   8   9
ATOM      9  NE  ARG A   6      -0.791 -12.085  10.848  1.00  0.00    -0.227 N 
ATOM     10  HE  ARG A   6      -1.730 -11.751  10.721  1.00  0.00     0.177 HD
ATOM     11  CZ  ARG A   6      -0.009 -11.352  11.626  1.00  0.00     0.665 C 
ATOM     12  NH2 ARG A   6      -0.485 -10.280  12.177  1.00  0.00    -0.235 N 
ATOM     13  NH1 ARG A   6       1.231 -11.651  11.892  1.00  0.00    -0.235 N 
ATOM     14 1HH2 ARG A   6      -1.482 -10.189  12.226  1.00  0.00     0.174 HD
ATOM     15 2HH2 ARG A   6      -0.001  -9.935  12.990  1.00  0.00     0.174 HD
ATOM     16 1HH1 ARG A   6       1.564 -12.571  11.668  1.00  0.00     0.174 HD
ATOM     17 2HH1 ARG A   6       1.755 -11.085  12.534  1.00  0.00     0.174 HD
ENDBRANCH   8   9
ENDBRANCH   7   8
ENDBRANCH   6   7
ENDBRANCH   5   6
BRANCH   5  18
ATOM     18  C   ARG A   6      -2.701 -16.244   9.908  1.00  0.00     0.241 C 
ATOM     19  N   ASN A   7      -3.755 -15.424   9.784  1.00  0.00    -0.346 N 
ATOM     20  H   ASN A   7      -3.683 -14.637   9.152  1.00  0.00     0.163 HD
ATOM     21  O   ARG A   6      -2.732 -17.213  10.655  1.00  0.00    -0.271 OA
BRANCH  19  22
ATOM     22  CA  ASN A   7      -5.081 -15.768  10.334  1.00  0.00     0.185 C 
BRANCH  22  23
ATOM     23  CB  ASN A   7      -5.455 -14.833  11.501  1.00  0.00     0.137 C 
BRANCH  23  24
ATOM     24  CG  ASN A   7      -4.743 -13.500  11.603  1.00  0.00     0.217 C 
ATOM     25  ND2 ASN A   7      -5.534 -12.449  11.643  1.00  0.00    -0.370 N 
ATOM     26 2HD2 ASN A   7      -6.516 -12.549  11.396  1.00  0.00     0.159 HD
ATOM     27 1HD2 ASN A   7      -5.113 -11.555  11.782  1.00  0.00     0.159 HD
ATOM     28  OD1 ASN A   7      -3.555 -13.382  11.890  1.00  0.00    -0.274 OA
ENDBRANCH  23  24
ENDBRANCH  22  23
BRANCH  22  29
ATOM     29  C   ASN A   7      -6.214 -15.715   9.286  1.00  0.00     0.241 C 
ATOM     30  N   PHE A   8      -7.378 -15.156   9.651  1.00  0.00    -0.346 N 
ATOM     31  H   PHE A   8      -7.480 -14.846  10.612  1.00  0.00     0.163 HD
ATOM     32  O   ASN A   7      -6.067 -16.298   8.213  1.00  0.00    -0.271 OA
BRANCH  30  33
ATOM     33  CA  PHE A   8      -8.514 -14.940   8.741  1.00  0.00     0.180 C 
BRANCH  33  34
ATOM     34  CB  PHE A   8      -9.732 -14.555   9.608  1.00  0.00     0.073 C 
BRANCH  34  35
ATOM     35  CG  PHE A   8     -10.620 -15.721  10.006  1.00  0.00    -0.056 A 
ATOM     36  CD1 PHE A   8     -10.222 -17.042   9.725  1.00  0.00     0.007 A 
ATOM     37  CE1 PHE A   8     -11.103 -18.110   9.974  1.00  0.00     0.001 A 
ATOM     38  CZ  PHE A   8     -12.380 -17.860  10.506  1.00  0.00     0.000 A 
ATOM     39  CE2 PHE A   8     -12.765 -16.545  10.818  1.00  0.00     0.001 A 
ATOM     40  CD2 PHE A   8     -11.884 -15.478  10.575  1.00  0.00     0.007 A 
ENDBRANCH  34  35
ENDBRANCH  33  34
BRANCH  33  41
ATOM     41  C   PHE A   8      -8.217 -13.895   7.637  1.00  0.00     0.241 C 
ATOM     42  N   TRP A   9      -7.923 -14.368   6.416  1.00  0.00    -0.344 N 
ATOM     43  H   TRP A   9      -7.930 -15.369   6.296  1.00  0.00     0.163 HD
ATOM     44  O   PHE A   8      -8.212 -12.695   7.922  1.00  0.00    -0.271 OA
BRANCH  42  45
ATOM     45  CA  TRP A   9      -7.532 -13.583   5.232  1.00  0.00     0.190 C 
BRANCH  45  46
ATOM     46  C   TRP A   9      -7.922 -14.208   3.875  1.00  0.00     0.197 C 
ATOM     47  OXT TRP A   9      -9.052 -13.906   3.411  1.00  0.00    -0.646 OA
ATOM     48  O   TRP A   9      -7.286 -15.229   3.535  1.00  0.00    -0.646 OA
ENDBRANCH  45  46
BRANCH  45  49
ATOM     49  CB  TRP A   9      -6.016 -13.348   5.317  1.00  0.00     0.077 C 
BRANCH  49  50
ATOM     50  CG  TRP A   9      -5.635 -11.936   5.622  1.00  0.00    -0.028 A 
ATOM     51  CD1 TRP A   9      -6.112 -10.868   4.951  1.00  0.00     0.096 A 
ATOM     52  NE1 TRP A   9      -5.707  -9.704   5.567  1.00  0.00    -0.365 N 
ATOM     53  HE1 TRP A   9      -6.115  -8.813   5.344  1.00  0.00     0.165 HD
ATOM     54  CE2 TRP A   9      -4.995  -9.971   6.716  1.00  0.00     0.042 A 
ATOM     55  CD2 TRP A   9      -4.929 -11.395   6.780  1.00  0.00    -0.002 A 
ATOM     56  CZ2 TRP A   9      -4.468  -9.143   7.716  1.00  0.00     0.030 A 
ATOM     57  CE3 TRP A   9      -4.307 -11.955   7.919  1.00  0.00     0.014 A 
ATOM     58  CZ3 TRP A   9      -3.790 -11.133   8.941  1.00  0.00     0.001 A 
ATOM     59  CH2 TRP A   9      -3.867  -9.732   8.841  1.00  0.00     0.002 A 
ENDBRANCH  49  50
ENDBRANCH  45  49
ENDBRANCH  42  45
ENDBRANCH  33  41
ENDBRANCH  30  33
ENDBRANCH  22  29
ENDBRANCH  19  22
ENDBRANCH   5  18
ENDBRANCH   3   5
BRANCH   1  60
ATOM     60  CA  TYR A   5       0.996 -18.705   7.998  1.00  0.00     0.180 C 
BRANCH  60  61
ATOM     61  N   TYR A   5      -0.136 -19.553   7.606  1.00  0.00    -0.346 N 
ATOM     62  H   TYR A   5      -0.557 -19.403   6.700  1.00  0.00     0.163 HD
ATOM     63  C   GLU A   4      -0.697 -20.442   8.442  1.00  0.00     0.241 C 
ATOM     64  O   GLU A   4      -0.338 -20.522   9.613  1.00  0.00    -0.271 OA
BRANCH  63  65
ATOM     65  CA  GLU A   4      -2.003 -21.112   7.992  1.00  0.00     0.177 C 
BRANCH  65  66
ATOM     66  N   GLU A   4      -3.167 -20.250   8.265  1.00  0.00    -0.346 N 
ATOM     67  H   GLU A   4      -3.101 -19.288   7.958  1.00  0.00     0.163 HD
ATOM     68  C   PRO A   3      -4.155 -20.542   9.116  1.00  0.00     0.241 C 
ATOM     69  O   PRO A   3      -4.220 -21.599   9.720  1.00  0.00    -0.271 OA
BRANCH  68  70
ATOM     70  CA  PRO A   3      -5.271 -19.507   9.320  1.00  0.00     0.179 C 
ATOM     71  N   PRO A   3      -6.556 -19.781   8.643  1.00  0.00    -0.337 N 
ATOM     72  CD  PRO A   3      -7.634 -19.703   9.626  1.00  0.00     0.127 C 
ATOM     73  C   ASP A   2      -6.683 -19.832   7.290  1.00  0.00     0.243 C 
ATOM     74  CG  PRO A   3      -7.058 -18.912  10.799  1.00  0.00     0.022 C 
ATOM     75  CB  PRO A   3      -5.603 -19.369  10.814  1.00  0.00     0.037 C 
ATOM     76  O   ASP A   2      -5.654 -19.860   6.611  1.00  0.00    -0.271 OA
BRANCH  73  77
ATOM     77  CA  ASP A   2      -8.001 -20.327   6.597  1.00  0.00     0.186 C 
BRANCH  77  78
ATOM     78  CB  ASP A   2      -7.792 -21.120   5.296  1.00  0.00     0.147 C 
BRANCH  78  79
ATOM     79  CG  ASP A   2      -9.107 -21.343   4.568  1.00  0.00     0.175 C 
ATOM     80  OD2 ASP A   2      -9.940 -22.040   5.195  1.00  0.00    -0.648 OA
ATOM     81  OD1 ASP A   2      -9.346 -20.576   3.628  1.00  0.00    -0.648 OA
ENDBRANCH  78  79
ENDBRANCH  77  78
BRANCH  77  82
ATOM     82  N   ASP A   2      -9.055 -19.314   6.334  1.00  0.00    -0.345 N 
ATOM     83  H   ASP A   2      -9.952 -19.553   6.729  1.00  0.00     0.163 HD
ATOM     84  C   TYR A   1      -8.799 -18.041   5.991  1.00  0.00     0.249 C 
ATOM     85  O   TYR A   1      -7.704 -17.679   5.630  1.00  0.00    -0.271 OA
BRANCH  84  86
ATOM     86  CA  TYR A   1      -9.925 -17.074   5.691  1.00  0.00     0.278 C 
BRANCH  86  87
ATOM     87  N   TYR A   1      -9.966 -16.721   4.262  1.00  0.00    -0.066 N 
ATOM     88  H2  TYR A   1      -9.198 -16.107   4.031  1.00  0.00     0.275 HD
ATOM     89  H1  TYR A   1     -10.841 -16.257   4.063  1.00  0.00     0.275 HD
ATOM     90  H3  TYR A   1      -9.899 -17.566   3.706  1.00  0.00     0.275 HD
ENDBRANCH  86  87
BRANCH  86  91
ATOM     91  CB  TYR A   1     -11.289 -17.475   6.251  1.00  0.00     0.081 C 
BRANCH  91  92
ATOM     92  CG  TYR A   1     -12.114 -16.270   6.667  1.00  0.00    -0.056 A 
ATOM     93  CD2 TYR A   1     -11.564 -14.975   6.529  1.00  0.00     0.010 A 
ATOM     94  CE2 TYR A   1     -12.303 -13.850   6.936  1.00  0.00     0.037 A 
ATOM     95  CZ  TYR A   1     -13.600 -14.013   7.473  1.00  0.00     0.065 A 
ATOM     96  CE1 TYR A   1     -14.162 -15.300   7.577  1.00  0.00     0.037 A 
ATOM     97  CD1 TYR A   1     -13.425 -16.435   7.173  1.00  0.00     0.010 A 
BRANCH  95  98
ATOM     98  OH  TYR A   1     -14.311 -12.938   7.883  1.00  0.00    -0.361 OA
ATOM     99  HH  TYR A   1     -14.306 -12.238   7.229  1.00  0.00     0.217 HD
ENDBRANCH  95  98
ENDBRANCH  91  92
ENDBRANCH  86  91
ENDBRANCH  84  86
ENDBRANCH  77  82
ENDBRANCH  73  77
ENDBRANCH  68  70
ENDBRANCH  65  66
BRANCH  65 100
ATOM    100  CB  GLU A   4      -1.965 -21.446   6.484  1.00  0.00     0.045 C 
BRANCH 100 101
ATOM    101  CG  GLU A   4      -2.124 -22.933   6.130  1.00  0.00     0.116 C 
BRANCH 101 102
ATOM    102  CD  GLU A   4      -1.961 -23.180   4.621  1.00  0.00     0.172 C 
ATOM    103  OE2 GLU A   4      -0.868 -22.829   4.123  1.00  0.00    -0.648 OA
ATOM    104  OE1 GLU A   4      -3.012 -23.369   3.958  1.00  0.00    -0.648 OA
ENDBRANCH 101 102
ENDBRANCH 100 101
ENDBRANCH  65 100
ENDBRANCH  63  65
ENDBRANCH  60  61
BRANCH  60 105
ATOM    105  CB  TYR A   5       1.938 -18.474   6.801  1.00  0.00     0.073 C 
BRANCH 105 106
ATOM    106  CG  TYR A   5       3.345 -17.986   7.133  1.00  0.00    -0.056 A 
ATOM    107  CD1 TYR A   5       4.265 -18.833   7.795  1.00  0.00     0.010 A 
ATOM    108  CE1 TYR A   5       5.612 -18.424   7.954  1.00  0.00     0.037 A 
ATOM    109  CZ  TYR A   5       6.030 -17.173   7.464  1.00  0.00     0.065 A 
ATOM    110  CE2 TYR A   5       5.105 -16.315   6.830  1.00  0.00     0.037 A 
ATOM    111  CD2 TYR A   5       3.769 -16.724   6.658  1.00  0.00     0.010 A 
BRANCH 109 112
ATOM    112  OH  TYR A   5       7.322 -16.792   7.590  1.00  0.00    -0.361 OA
ATOM    113  HH  TYR A   5       7.411 -15.874   7.325  1.00  0.00     0.217 HD
ENDBRANCH 109 112
ENDBRANCH 105 106
ENDBRANCH  60 105
ENDBRANCH   1  60
TORSDOF 38
ENDMDL
MODEL 3
REMARK VINA RESULT:      -6.5     15.858     22.245
REMARK WARNING: 32 MAX_TORS EXCEEDED!!!
REMARK  38 active torsions:
REMARK  status: ('A' for Active; 'I' for Inactive)
REMARK    1  A    between atoms: N_1  and  CA_2 
REMARK    2  A    between atoms: CA_2  and  CB_5 
REMARK    3  A    between atoms: CA_2  and  C_3 
REMARK       I    between atoms: C_3  and  N_17 
REMARK    4  A    between atoms: CB_5  and  CG_6 
REMARK    5  A    between atoms: CZ_10  and  OH_11 
REMARK    6  A    between atoms: N_17  and  CA_18 
REMARK    7  A    between atoms: CA_18  and  CB_21 
REMARK    8  A    between atoms: CA_18  and  C_19 
REMARK       I    between atoms: C_19  and  N_26 
REMARK    9  A    between atoms: CB_21  and  CG_22 
REMARK   10  A    between atoms: CA_27  and  C_28 
REMARK       I    between atoms: C_28  and  N_33 
REMARK   11  A    between atoms: N_33  and  CA_34 
REMARK   12  A    between atoms: CA_34  and  C_35 
REMARK   13  A    between atoms: CA_34  and  CB_37 
REMARK       I    between atoms: C_35  and  N_43 
REMARK   14  A    between atoms: CB_37  and  CG_38 
REMARK   15  A    between atoms: CG_38  and  CD_39 
REMARK   16  A    between atoms: N_43  and  CA_44 
REMARK   17  A    between atoms: CA_44  and  CB_47 
REMARK   18  A    between atoms: CA_44  and  C_45 
REMARK       I    between atoms: C_45  and  N_57 
REMARK   19  A    between atoms: CB_47  and  CG_48 
REMARK   20  A    between atoms: CZ_52  and  OH_53 
REMARK   21  A    between atoms: N_57  and  CA_58 
REMARK   22  A    between atoms: CA_58  and  CB_61 
REMARK   23  A    between atoms: CA_58  and  C_59 
REMARK       I    between atoms: C_59  and  N_74 
REMARK   24  A    between atoms: CB_61  and  CG_62 
REMARK   25  A    between atoms: CG_62  and  CD_63 
REMARK   26  A    between atoms: CD_63  and  NE_64 
REMARK       I    between atoms: NE_64  and  CZ_65 
REMARK       I    between atoms: CZ_65  and  NH2_66 
REMARK   27  A    between atoms: N_74  and  CA_75 
REMARK   28  A    between atoms: CA_75  and  CB_78 
REMARK   29  A    between atoms: CA_75  and  C_76 
REMARK       I    between atoms: C_76  and  N_85 
REMARK   30  A    between atoms: CB_78  and  CG_79 
REMARK       I    between atoms: CG_79  and  ND2_80 
REMARK   31  A    between atoms: N_85  and  CA_86 
REMARK   32  A    between atoms: CA_86  and  CB_89 
REMARK   33  A    between atoms: CA_86  and  C_87 
REMARK       I    between atoms: C_87  and  N_97 
REMARK   34  A    between atoms: CB_89  and  CG_90 
REMARK   35  A    between atoms: N_97  and  CA_98 
REMARK   36  A    between atoms: CA_98  and  C_99 
REMARK   37  A    between atoms: CA_98  and  CB_102 
REMARK   38  A    between atoms: CB_102  and  CG_103 
ROOT
ATOM      1  C   TYR A   5      -8.142   2.482   6.260  1.00  0.00     0.241 C 
ATOM      2  O   TYR A   5      -7.670   2.781   7.354  1.00  0.00    -0.271 OA
ATOM      3  N   ARG A   6      -7.389   1.906   5.307  1.00  0.00    -0.346 N 
ATOM      4  H   ARG A   6      -7.845   1.668   4.430  1.00  0.00     0.163 HD
ENDROOT
BRANCH   3   5
ATOM      5  CA  ARG A   6      -5.964   1.547   5.487  1.00  0.00     0.176 C 
BRANCH   5   6
ATOM      6  CB  ARG A   6      -5.634   0.346   4.577  1.00  0.00     0.036 C 
BRANCH   6   7
ATOM      7  CG  ARG A   6      -6.884  -0.278   3.915  1.00  0.00     0.023 C 
BRANCH   7   8
ATOM      8  CD  ARG A   6      -6.571  -1.521   3.066  1.00  0.00     0.138 C 
BRANCH   8   9
ATOM      9  NE  ARG A   6      -7.779  -2.060   2.404  1.00  0.00    -0.227 N 
ATOM     10  HE  ARG A   6      -8.189  -1.472   1.701  1.00  0.00     0.177 HD
ATOM     11  CZ  ARG A   6      -8.316  -3.261   2.548  1.00  0.00     0.665 C 
ATOM     12  NH2 ARG A   6      -9.307  -3.611   1.789  1.00  0.00    -0.235 N 
ATOM     13  NH1 ARG A   6      -7.897  -4.142   3.413  1.00  0.00    -0.235 N 
ATOM     14 1HH2 ARG A   6      -9.452  -3.086   0.948  1.00  0.00     0.174 HD
ATOM     15 2HH2 ARG A   6      -9.476  -4.599   1.691  1.00  0.00     0.174 HD
ATOM     16 1HH1 ARG A   6      -7.009  -3.996   3.858  1.00  0.00     0.174 HD
ATOM     17 2HH1 ARG A   6      -8.310  -5.056   3.435  1.00  0.00     0.174 HD
ENDBRANCH   8   9
ENDBRANCH   7   8
ENDBRANCH   6   7
ENDBRANCH   5   6
BRANCH   5  18
ATOM     18  C   ARG A   6      -4.987   2.719   5.247  1.00  0.00     0.241 C 
ATOM     19  N   ASN A   7      -5.326   3.956   5.635  1.00  0.00    -0.346 N 
ATOM     20  H   ASN A   7      -6.173   4.078   6.176  1.00  0.00     0.163 HD
ATOM     21  O   ARG A   6      -3.972   2.512   4.594  1.00  0.00    -0.271 OA
BRANCH  19  22
ATOM     22  CA  ASN A   7      -4.394   5.095   5.520  1.00  0.00     0.185 C 
BRANCH  22  23
ATOM     23  CB  ASN A   7      -5.106   6.339   4.956  1.00  0.00     0.137 C 
BRANCH  23  24
ATOM     24  CG  ASN A   7      -4.304   7.287   4.088  1.00  0.00     0.217 C 
ATOM     25  ND2 ASN A   7      -3.768   8.306   4.724  1.00  0.00    -0.370 N 
ATOM     26 2HD2 ASN A   7      -4.077   8.527   5.669  1.00  0.00     0.159 HD
ATOM     27 1HD2 ASN A   7      -3.173   8.917   4.207  1.00  0.00     0.159 HD
ATOM     28  OD1 ASN A   7      -3.943   7.023   2.944  1.00  0.00    -0.274 OA
ENDBRANCH  23  24
ENDBRANCH  22  23
BRANCH  22  29
ATOM     29  C   ASN A   7      -3.728   5.482   6.860  1.00  0.00     0.241 C 
ATOM     30  N   PHE A   8      -2.420   5.778   6.845  1.00  0.00    -0.346 N 
ATOM     31  H   PHE A   8      -1.917   5.679   5.969  1.00  0.00     0.163 HD
ATOM     32  O   ASN A   7      -4.372   5.377   7.903  1.00  0.00    -0.271 OA
BRANCH  30  33
ATOM     33  CA  PHE A   8      -1.667   6.260   8.013  1.00  0.00     0.180 C 
BRANCH  33  34
ATOM     34  CB  PHE A   8      -0.470   5.307   8.216  1.00  0.00     0.073 C 
BRANCH  34  35
ATOM     35  CG  PHE A   8      -0.477   4.554   9.535  1.00  0.00    -0.056 A 
ATOM     36  CD1 PHE A   8      -1.577   4.663  10.407  1.00  0.00     0.007 A 
ATOM     37  CE1 PHE A   8      -1.524   4.074  11.683  1.00  0.00     0.001 A 
ATOM     38  CZ  PHE A   8      -0.375   3.372  12.088  1.00  0.00     0.000 A 
ATOM     39  CE2 PHE A   8       0.711   3.234  11.206  1.00  0.00     0.001 A 
ATOM     40  CD2 PHE A   8       0.657   3.818   9.928  1.00  0.00     0.007 A 
ENDBRANCH  34  35
ENDBRANCH  33  34
BRANCH  33  41
ATOM     41  C   PHE A   8      -1.230   7.741   7.885  1.00  0.00     0.241 C 
ATOM     42  N   TRP A   9       0.047   8.026   8.184  1.00  0.00    -0.344 N 
ATOM     43  H   TRP A   9       0.638   7.257   8.456  1.00  0.00     0.163 HD
ATOM     44  O   PHE A   8      -2.062   8.594   7.569  1.00  0.00    -0.271 OA
BRANCH  42  45
ATOM     45  CA  TRP A   9       0.673   9.359   8.214  1.00  0.00     0.190 C 
BRANCH  45  46
ATOM     46  C   TRP A   9       1.563   9.690   6.995  1.00  0.00     0.197 C 
ATOM     47  OXT TRP A   9       1.630   8.823   6.086  1.00  0.00    -0.646 OA
ATOM     48  O   TRP A   9       2.423  10.581   7.165  1.00  0.00    -0.646 OA
ENDBRANCH  45  46
BRANCH  45  49
ATOM     49  CB  TRP A   9       1.470   9.463   9.524  1.00  0.00     0.077 C 
BRANCH  49  50
ATOM     50  CG  TRP A   9       2.239   8.228   9.867  1.00  0.00    -0.028 A 
ATOM     51  CD1 TRP A   9       3.367   7.847   9.234  1.00  0.00     0.096 A 
ATOM     52  NE1 TRP A   9       3.928   6.767   9.881  1.00  0.00    -0.365 N 
ATOM     53  HE1 TRP A   9       4.866   6.459   9.690  1.00  0.00     0.165 HD
ATOM     54  CE2 TRP A   9       3.215   6.439  11.012  1.00  0.00     0.042 A 
ATOM     55  CD2 TRP A   9       2.123   7.357  11.032  1.00  0.00    -0.002 A 
ATOM     56  CZ2 TRP A   9       3.435   5.503  12.032  1.00  0.00     0.030 A 
ATOM     57  CE3 TRP A   9       1.256   7.294  12.147  1.00  0.00     0.014 A 
ATOM     58  CZ3 TRP A   9       1.478   6.369  13.187  1.00  0.00     0.001 A 
ATOM     59  CH2 TRP A   9       2.562   5.474  13.131  1.00  0.00     0.002 A 
ENDBRANCH  49  50
ENDBRANCH  45  49
ENDBRANCH  42  45
ENDBRANCH  33  41
ENDBRANCH  30  33
ENDBRANCH  22  29
ENDBRANCH  19  22
ENDBRANCH   5  18
ENDBRANCH   3   5
BRANCH   1  60
ATOM     60  CA  TYR A   5      -9.526   3.036   5.876  1.00  0.00     0.180 C 
BRANCH  60  61
ATOM     61  N   TYR A   5     -10.564   1.998   5.898  1.00  0.00    -0.346 N 
ATOM     62  H   TYR A   5     -10.994   1.768   6.781  1.00  0.00     0.163 HD
ATOM     63  C   GLU A   4     -10.884   1.273   4.813  1.00  0.00     0.241 C 
ATOM     64  O   GLU A   4     -10.254   1.389   3.767  1.00  0.00    -0.271 OA
BRANCH  63  65
ATOM     65  CA  GLU A   4     -11.827   0.078   5.013  1.00  0.00     0.177 C 
BRANCH  65  66
ATOM     66  N   GLU A   4     -11.271  -0.885   5.980  1.00  0.00    -0.346 N 
ATOM     67  H   GLU A   4     -11.299  -0.617   6.955  1.00  0.00     0.163 HD
ATOM     68  C   PRO A   3     -10.491  -1.925   5.665  1.00  0.00     0.241 C 
ATOM     69  O   PRO A   3     -10.205  -2.216   4.516  1.00  0.00    -0.271 OA
BRANCH  68  70
ATOM     70  CA  PRO A   3      -9.954  -2.804   6.804  1.00  0.00     0.179 C 
ATOM     71  N   PRO A   3      -9.541  -2.102   8.038  1.00  0.00    -0.337 N 
ATOM     72  CD  PRO A   3     -10.211  -2.721   9.179  1.00  0.00     0.127 C 
ATOM     73  C   ASP A   2      -8.512  -1.214   8.075  1.00  0.00     0.243 C 
ATOM     74  CG  PRO A   3     -10.657  -4.098   8.692  1.00  0.00     0.022 C 
ATOM     75  CB  PRO A   3     -11.018  -3.824   7.236  1.00  0.00     0.037 C 
ATOM     76  O   ASP A   2      -8.045  -0.821   7.002  1.00  0.00    -0.271 OA
BRANCH  73  77
ATOM     77  CA  ASP A   2      -8.222  -0.329   9.338  1.00  0.00     0.186 C 
BRANCH  77  78
ATOM     78  CB  ASP A   2      -9.431   0.456   9.872  1.00  0.00     0.147 C 
BRANCH  78  79
ATOM     79  CG  ASP A   2      -9.501   0.398  11.389  1.00  0.00     0.175 C 
ATOM     80  OD2 ASP A   2      -8.493   0.858  11.976  1.00  0.00    -0.648 OA
ATOM     81  OD1 ASP A   2     -10.624   0.226  11.877  1.00  0.00    -0.648 OA
ENDBRANCH  78  79
ENDBRANCH  77  78
BRANCH  77  82
ATOM     82  N   ASP A   2      -7.079   0.616   9.261  1.00  0.00    -0.345 N 
ATOM     83  H   ASP A   2      -7.342   1.580   9.401  1.00  0.00     0.163 HD
ATOM     84  C   TYR A   1      -5.795   0.250   9.411  1.00  0.00     0.249 C 
ATOM     85  O   TYR A   1      -5.447  -0.907   9.376  1.00  0.00    -0.271 OA
BRANCH  84  86
ATOM     86  CA  TYR A   1      -4.676   1.261   9.273  1.00  0.00     0.278 C 
BRANCH  86  87
ATOM     87  N   TYR A   1      -5.198   2.605   8.976  1.00  0.00    -0.066 N 
ATOM     88  H2  TYR A   1      -5.532   3.046   9.820  1.00  0.00     0.275 HD
ATOM     89  H1  TYR A   1      -5.957   2.525   8.313  1.00  0.00     0.275 HD
ATOM     90  H3  TYR A   1      -4.459   3.170   8.573  1.00  0.00     0.275 HD
ENDBRANCH  86  87
BRANCH  86  91
ATOM     91  CB  TYR A   1      -3.651   1.251  10.407  1.00  0.00     0.081 C 
BRANCH  91  92
ATOM     92  CG  TYR A   1      -2.265   0.866   9.922  1.00  0.00    -0.056 A 
ATOM     93  CD2 TYR A   1      -1.440   0.069  10.747  1.00  0.00     0.010 A 
ATOM     94  CE2 TYR A   1      -0.142  -0.272  10.326  1.00  0.00     0.037 A 
ATOM     95  CZ  TYR A   1       0.332   0.172   9.071  1.00  0.00     0.065 A 
ATOM     96  CE1 TYR A   1      -0.502   0.936   8.232  1.00  0.00     0.037 A 
ATOM     97  CD1 TYR A   1      -1.806   1.286   8.651  1.00  0.00     0.010 A 
BRANCH  95  98
ATOM     98  OH  TYR A   1       1.585  -0.137   8.665  1.00  0.00    -0.361 OA
ATOM     99  HH  TYR A   1       2.099  -0.535   9.369  1.00  0.00     0.217 HD
ENDBRANCH  95  98
ENDBRANCH  91  92
ENDBRANCH  86  91
ENDBRANCH  84  86
ENDBRANCH  77  82
ENDBRANCH  73  77
ENDBRANCH  68  70
ENDBRANCH  65  66
BRANCH  65 100
ATOM    100  CB  GLU A   4     -13.215   0.543   5.506  1.00  0.00     0.045 C 
BRANCH 100 101
ATOM    101  CG  GLU A   4     -13.552   0.192   6.964  1.00  0.00     0.116 C 
BRANCH 101 102
ATOM    102  CD  GLU A   4     -13.516   1.433   7.872  1.00  0.00     0.172 C 
ATOM    103  OE2 GLU A   4     -12.388   1.771   8.294  1.00  0.00    -0.648 OA
ATOM    104  OE1 GLU A   4     -14.603   1.789   8.394  1.00  0.00    -0.648 OA
ENDBRANCH 101 102
ENDBRANCH 100 101
ENDBRANCH  65 100
ENDBRANCH  63  65
ENDBRANCH  60  61
BRANCH  60 105
ATOM    105  CB  TYR A   5      -9.932   4.225   6.766  1.00  0.00     0.073 C 
BRANCH 105 106
ATOM    106  CG  TYR A   5      -9.825   5.610   6.135  1.00  0.00    -0.056 A 
ATOM    107  CD1 TYR A   5     -10.983   6.296   5.697  1.00  0.00     0.010 A 
ATOM    108  CE1 TYR A   5     -10.884   7.640   5.261  1.00  0.00     0.037 A 
ATOM    109  CZ  TYR A   5      -9.635   8.287   5.253  1.00  0.00     0.065 A 
ATOM    110  CE2 TYR A   5      -8.475   7.594   5.660  1.00  0.00     0.037 A 
ATOM    111  CD2 TYR A   5      -8.571   6.262   6.108  1.00  0.00     0.010 A 
BRANCH 109 112
ATOM    112  OH  TYR A   5      -9.543   9.579   4.863  1.00  0.00    -0.361 OA
ATOM    113  HH  TYR A   5      -9.915  10.144   5.543  1.00  0.00     0.217 HD
ENDBRANCH 109 112
ENDBRANCH 105 106
ENDBRANCH  60 105
ENDBRANCH   1  60
TORSDOF 38
ENDMDL
MODEL 4
REMARK VINA RESULT:      -6.5      2.948      6.970
REMARK WARNING: 32 MAX_TORS EXCEEDED!!!
REMARK  38 active torsions:
REMARK  status: ('A' for Active; 'I' for Inactive)
REMARK    1  A    between atoms: N_1  and  CA_2 
REMARK    2  A    between atoms: CA_2  and  CB_5 
REMARK    3  A    between atoms: CA_2  and  C_3 
REMARK       I    between atoms: C_3  and  N_17 
REMARK    4  A    between atoms: CB_5  and  CG_6 
REMARK    5  A    between atoms: CZ_10  and  OH_11 
REMARK    6  A    between atoms: N_17  and  CA_18 
REMARK    7  A    between atoms: CA_18  and  CB_21 
REMARK    8  A    between atoms: CA_18  and  C_19 
REMARK       I    between atoms: C_19  and  N_26 
REMARK    9  A    between atoms: CB_21  and  CG_22 
REMARK   10  A    between atoms: CA_27  and  C_28 
REMARK       I    between atoms: C_28  and  N_33 
REMARK   11  A    between atoms: N_33  and  CA_34 
REMARK   12  A    between atoms: CA_34  and  C_35 
REMARK   13  A    between atoms: CA_34  and  CB_37 
REMARK       I    between atoms: C_35  and  N_43 
REMARK   14  A    between atoms: CB_37  and  CG_38 
REMARK   15  A    between atoms: CG_38  and  CD_39 
REMARK   16  A    between atoms: N_43  and  CA_44 
REMARK   17  A    between atoms: CA_44  and  CB_47 
REMARK   18  A    between atoms: CA_44  and  C_45 
REMARK       I    between atoms: C_45  and  N_57 
REMARK   19  A    between atoms: CB_47  and  CG_48 
REMARK   20  A    between atoms: CZ_52  and  OH_53 
REMARK   21  A    between atoms: N_57  and  CA_58 
REMARK   22  A    between atoms: CA_58  and  CB_61 
REMARK   23  A    between atoms: CA_58  and  C_59 
REMARK       I    between atoms: C_59  and  N_74 
REMARK   24  A    between atoms: CB_61  and  CG_62 
REMARK   25  A    between atoms: CG_62  and  CD_63 
REMARK   26  A    between atoms: CD_63  and  NE_64 
REMARK       I    between atoms: NE_64  and  CZ_65 
REMARK       I    between atoms: CZ_65  and  NH2_66 
REMARK   27  A    between atoms: N_74  and  CA_75 
REMARK   28  A    between atoms: CA_75  and  CB_78 
REMARK   29  A    between atoms: CA_75  and  C_76 
REMARK       I    between atoms: C_76  and  N_85 
REMARK   30  A    between atoms: CB_78  and  CG_79 
REMARK       I    between atoms: CG_79  and  ND2_80 
REMARK   31  A    between atoms: N_85  and  CA_86 
REMARK   32  A    between atoms: CA_86  and  CB_89 
REMARK   33  A    between atoms: CA_86  and  C_87 
REMARK       I    between atoms: C_87  and  N_97 
REMARK   34  A    between atoms: CB_89  and  CG_90 
REMARK   35  A    between atoms: N_97  and  CA_98 
REMARK   36  A    between atoms: CA_98  and  C_99 
REMARK   37  A    between atoms: CA_98  and  CB_102 
REMARK   38  A    between atoms: CB_102  and  CG_103 
ROOT
ATOM      1  C   TYR A   5      -2.258 -13.383   8.917  1.00  0.00     0.241 C 
ATOM      2  O   TYR A   5      -1.400 -12.567   9.245  1.00  0.00    -0.271 OA
ATOM      3  N   ARG A   6      -1.936 -14.655   8.622  1.00  0.00    -0.346 N 
ATOM      4  H   ARG A   6      -2.695 -15.284   8.374  1.00  0.00     0.163 HD
ENDROOT
BRANCH   3   5
ATOM      5  CA  ARG A   6      -0.561 -15.196   8.700  1.00  0.00     0.176 C 
BRANCH   5   6
ATOM      6  CB  ARG A   6      -0.312 -15.722  10.128  1.00  0.00     0.036 C 
BRANCH   6   7
ATOM      7  CG  ARG A   6      -1.604 -15.832  10.970  1.00  0.00     0.023 C 
BRANCH   7   8
ATOM      8  CD  ARG A   6      -1.549 -15.034  12.283  1.00  0.00     0.138 C 
BRANCH   8   9
ATOM      9  NE  ARG A   6      -1.505 -13.575  12.045  1.00  0.00    -0.227 N 
ATOM     10  HE  ARG A   6      -2.244 -13.205  11.475  1.00  0.00     0.177 HD
ATOM     11  CZ  ARG A   6      -0.678 -12.690  12.579  1.00  0.00     0.665 C 
ATOM     12  NH2 ARG A   6      -0.866 -11.427  12.354  1.00  0.00    -0.235 N 
ATOM     13  NH1 ARG A   6       0.328 -13.008  13.343  1.00  0.00    -0.235 N 
ATOM     14 1HH2 ARG A   6      -1.770 -11.146  12.026  1.00  0.00     0.174 HD
ATOM     15 2HH2 ARG A   6      -0.448 -10.783  13.006  1.00  0.00     0.174 HD
ATOM     16 1HH1 ARG A   6       0.376 -13.941  13.713  1.00  0.00     0.174 HD
ATOM     17 2HH1 ARG A   6       0.886 -12.287  13.762  1.00  0.00     0.174 HD
ENDBRANCH   8   9
ENDBRANCH   7   8
ENDBRANCH   6   7
ENDBRANCH   5   6
BRANCH   5  18
ATOM     18  C   ARG A   6      -0.253 -16.279   7.642  1.00  0.00     0.241 C 
ATOM     19  N   ASN A   7       0.623 -17.254   7.926  1.00  0.00    -0.346 N 
ATOM     20  H   ASN A   7       0.982 -17.321   8.870  1.00  0.00     0.163 HD
ATOM     21  O   ARG A   6      -0.723 -16.153   6.519  1.00  0.00    -0.271 OA
BRANCH  19  22
ATOM     22  CA  ASN A   7       0.882 -18.369   6.993  1.00  0.00     0.185 C 
BRANCH  22  23
ATOM     23  CB  ASN A   7       2.295 -18.946   7.199  1.00  0.00     0.137 C 
BRANCH  23  24
ATOM     24  CG  ASN A   7       3.147 -18.366   8.310  1.00  0.00     0.217 C 
ATOM     25  ND2 ASN A   7       4.217 -17.715   7.908  1.00  0.00    -0.370 N 
ATOM     26 2HD2 ASN A   7       4.531 -17.811   6.944  1.00  0.00     0.159 HD
ATOM     27 1HD2 ASN A   7       4.770 -17.255   8.599  1.00  0.00     0.159 HD
ATOM     28  OD1 ASN A   7       2.770 -18.262   9.474  1.00  0.00    -0.274 OA
ENDBRANCH  23  24
ENDBRANCH  22  23
BRANCH  22  29
ATOM     29  C   ASN A   7      -0.138 -19.523   7.115  1.00  0.00     0.241 C 
ATOM     30  N   PHE A   8      -0.564 -20.103   5.984  1.00  0.00    -0.346 N 
ATOM     31  H   PHE A   8      -0.244 -19.721   5.100  1.00  0.00     0.163 HD
ATOM     32  O   ASN A   7      -0.623 -19.782   8.216  1.00  0.00    -0.271 OA
BRANCH  30  33
ATOM     33  CA  PHE A   8      -1.452 -21.275   5.938  1.00  0.00     0.180 C 
BRANCH  33  34
ATOM     34  CB  PHE A   8      -2.117 -21.296   4.545  1.00  0.00     0.073 C 
BRANCH  34  35
ATOM     35  CG  PHE A   8      -3.549 -21.805   4.535  1.00  0.00    -0.056 A 
ATOM     36  CD1 PHE A   8      -4.364 -21.602   3.405  1.00  0.00     0.007 A 
ATOM     37  CE1 PHE A   8      -5.725 -21.954   3.447  1.00  0.00     0.001 A 
ATOM     38  CZ  PHE A   8      -6.272 -22.511   4.617  1.00  0.00     0.000 A 
ATOM     39  CE2 PHE A   8      -5.452 -22.744   5.734  1.00  0.00     0.001 A 
ATOM     40  CD2 PHE A   8      -4.090 -22.398   5.690  1.00  0.00     0.007 A 
ENDBRANCH  34  35
ENDBRANCH  33  34
BRANCH  33  41
ATOM     41  C   PHE A   8      -0.723 -22.602   6.267  1.00  0.00     0.241 C 
ATOM     42  N   TRP A   9       0.047 -23.128   5.301  1.00  0.00    -0.344 N 
ATOM     43  H   TRP A   9       0.111 -22.617   4.434  1.00  0.00     0.163 HD
ATOM     44  O   PHE A   8      -0.910 -23.143   7.359  1.00  0.00    -0.271 OA
BRANCH  42  45
ATOM     45  CA  TRP A   9       0.772 -24.410   5.346  1.00  0.00     0.190 C 
BRANCH  45  46
ATOM     46  C   TRP A   9       2.238 -24.314   5.821  1.00  0.00     0.197 C 
ATOM     47  OXT TRP A   9       3.119 -24.777   5.050  1.00  0.00    -0.646 OA
ATOM     48  O   TRP A   9       2.413 -24.150   7.047  1.00  0.00    -0.646 OA
ENDBRANCH  45  46
BRANCH  45  49
ATOM     49  CB  TRP A   9       0.685 -25.035   3.945  1.00  0.00     0.077 C 
BRANCH  49  50
ATOM     50  CG  TRP A   9      -0.594 -24.744   3.227  1.00  0.00    -0.028 A 
ATOM     51  CD1 TRP A   9      -0.655 -24.269   1.967  1.00  0.00     0.096 A 
ATOM     52  NE1 TRP A   9      -1.962 -24.261   1.530  1.00  0.00    -0.365 N 
ATOM     53  HE1 TRP A   9      -2.199 -24.133   0.562  1.00  0.00     0.165 HD
ATOM     54  CE2 TRP A   9      -2.807 -24.798   2.476  1.00  0.00     0.042 A 
ATOM     55  CD2 TRP A   9      -1.960 -25.117   3.579  1.00  0.00    -0.002 A 
ATOM     56  CZ2 TRP A   9      -4.177 -25.091   2.464  1.00  0.00     0.030 A 
ATOM     57  CE3 TRP A   9      -2.565 -25.764   4.681  1.00  0.00     0.014 A 
ATOM     58  CZ3 TRP A   9      -3.938 -26.081   4.673  1.00  0.00     0.001 A 
ATOM     59  CH2 TRP A   9      -4.744 -25.745   3.570  1.00  0.00     0.002 A 
ENDBRANCH  49  50
ENDBRANCH  45  49
ENDBRANCH  42  45
ENDBRANCH  33  41
ENDBRANCH  30  33
ENDBRANCH  22  29
ENDBRANCH  19  22
ENDBRANCH   5  18
ENDBRANCH   3   5
BRANCH   1  60
ATOM     60  CA  TYR A   5      -3.666 -12.874   8.558  1.00  0.00     0.180 C 
BRANCH  60  61
ATOM     61  N   TYR A   5      -4.718 -13.794   9.003  1.00  0.00    -0.346 N 
ATOM     62  H   TYR A   5      -4.994 -13.776   9.974  1.00  0.00     0.163 HD
ATOM     63  C   GLU A   4      -5.250 -14.728   8.197  1.00  0.00     0.241 C 
ATOM     64  O   GLU A   4      -4.811 -14.910   7.065  1.00  0.00    -0.271 OA
BRANCH  63  65
ATOM     65  CA  GLU A   4      -6.184 -15.767   8.834  1.00  0.00     0.177 C 
BRANCH  65  66
ATOM     66  N   GLU A   4      -7.531 -15.710   8.239  1.00  0.00    -0.346 N 
ATOM     67  H   GLU A   4      -7.579 -15.653   7.229  1.00  0.00     0.163 HD
ATOM     68  C   PRO A   3      -8.656 -15.440   8.909  1.00  0.00     0.241 C 
ATOM     69  O   PRO A   3      -8.684 -15.268  10.116  1.00  0.00    -0.271 OA
BRANCH  68  70
ATOM     70  CA  PRO A   3      -9.973 -15.371   8.123  1.00  0.00     0.179 C 
ATOM     71  N   PRO A   3      -9.965 -14.545   6.897  1.00  0.00    -0.337 N 
ATOM     72  CD  PRO A   3     -10.471 -15.347   5.785  1.00  0.00     0.127 C 
ATOM     73  C   ASP A   2      -9.761 -13.201   6.912  1.00  0.00     0.243 C 
ATOM     74  CG  PRO A   3     -11.233 -16.503   6.430  1.00  0.00     0.022 C 
ATOM     75  CB  PRO A   3     -10.404 -16.777   7.681  1.00  0.00     0.037 C 
ATOM     76  O   ASP A   2      -9.360 -12.686   7.958  1.00  0.00    -0.271 OA
BRANCH  73  77
ATOM     77  CA  ASP A   2      -9.550 -12.377   5.592  1.00  0.00     0.186 C 
BRANCH  77  78
ATOM     78  CB  ASP A   2      -8.083 -12.094   5.231  1.00  0.00     0.147 C 
BRANCH  78  79
ATOM     79  CG  ASP A   2      -7.439 -13.294   4.555  1.00  0.00     0.175 C 
ATOM     80  OD2 ASP A   2      -8.171 -13.879   3.722  1.00  0.00    -0.648 OA
ATOM     81  OD1 ASP A   2      -6.207 -13.369   4.637  1.00  0.00    -0.648 OA
ENDBRANCH  78  79
ENDBRANCH  77  78
BRANCH  77  82
ATOM     82  N   ASP A   2     -10.293 -11.098   5.461  1.00  0.00    -0.345 N 
ATOM     83  H   ASP A   2      -9.737 -10.284   5.673  1.00  0.00     0.163 HD
ATOM     84  C   TYR A   1     -11.425 -10.961   4.748  1.00  0.00     0.249 C 
ATOM     85  O   TYR A   1     -12.061 -11.913   4.363  1.00  0.00    -0.271 OA
BRANCH  84  86
ATOM     86  CA  TYR A   1     -12.156  -9.636   4.696  1.00  0.00     0.278 C 
BRANCH  86  87
ATOM     87  N   TYR A   1     -11.879  -8.821   5.890  1.00  0.00    -0.066 N 
ATOM     88  H2  TYR A   1     -10.886  -8.790   6.070  1.00  0.00     0.275 HD
ATOM     89  H1  TYR A   1     -12.354  -9.227   6.684  1.00  0.00     0.275 HD
ATOM     90  H3  TYR A   1     -12.222  -7.878   5.739  1.00  0.00     0.275 HD
ENDBRANCH  86  87
BRANCH  86  91
ATOM     91  CB  TYR A   1     -11.999  -8.861   3.388  1.00  0.00     0.081 C 
BRANCH  91  92
ATOM     92  CG  TYR A   1     -10.984  -7.738   3.508  1.00  0.00    -0.056 A 
ATOM     93  CD2 TYR A   1      -9.605  -8.041   3.432  1.00  0.00     0.010 A 
ATOM     94  CE2 TYR A   1      -8.652  -7.016   3.570  1.00  0.00     0.037 A 
ATOM     95  CZ  TYR A   1      -9.072  -5.683   3.771  1.00  0.00     0.065 A 
ATOM     96  CE1 TYR A   1     -10.445  -5.375   3.810  1.00  0.00     0.037 A 
ATOM     97  CD1 TYR A   1     -11.410  -6.399   3.676  1.00  0.00     0.010 A 
BRANCH  95  98
ATOM     98  OH  TYR A   1      -8.161  -4.694   3.922  1.00  0.00    -0.361 OA
ATOM     99  HH  TYR A   1      -8.005  -4.227   3.100  1.00  0.00     0.217 HD
ENDBRANCH  95  98
ENDBRANCH  91  92
ENDBRANCH  86  91
ENDBRANCH  84  86
ENDBRANCH  77  82
ENDBRANCH  73  77
ENDBRANCH  68  70
ENDBRANCH  65  66
BRANCH  65 100
ATOM    100  CB  GLU A   4      -5.620 -17.195   8.671  1.00  0.00     0.045 C 
BRANCH 100 101
ATOM    101  CG  GLU A   4      -6.333 -18.074   7.630  1.00  0.00     0.116 C 
BRANCH 101 102
ATOM    102  CD  GLU A   4      -5.332 -18.870   6.775  1.00  0.00     0.172 C 
ATOM    103  OE2 GLU A   4      -4.133 -18.793   7.122  1.00  0.00    -0.648 OA
ATOM    104  OE1 GLU A   4      -5.717 -19.229   5.634  1.00  0.00    -0.648 OA
ENDBRANCH 101 102
ENDBRANCH 100 101
ENDBRANCH  65 100
ENDBRANCH  63  65
ENDBRANCH  60  61
BRANCH  60 105
ATOM    105  CB  TYR A   5      -3.917 -11.457   9.110  1.00  0.00     0.073 C 
BRANCH 105 106
ATOM    106  CG  TYR A   5      -4.558 -10.461   8.149  1.00  0.00    -0.056 A 
ATOM    107  CD1 TYR A   5      -4.590  -9.080   8.456  1.00  0.00     0.010 A 
ATOM    108  CE1 TYR A   5      -5.044  -8.152   7.486  1.00  0.00     0.037 A 
ATOM    109  CZ  TYR A   5      -5.473  -8.606   6.225  1.00  0.00     0.065 A 
ATOM    110  CE2 TYR A   5      -5.470  -9.986   5.930  1.00  0.00     0.037 A 
ATOM    111  CD2 TYR A   5      -5.007 -10.909   6.885  1.00  0.00     0.010 A 
BRANCH 109 112
ATOM    112  OH  TYR A   5      -5.881  -7.719   5.289  1.00  0.00    -0.361 OA
ATOM    113  HH  TYR A   5      -5.334  -6.931   5.336  1.00  0.00     0.217 HD
ENDBRANCH 109 112
ENDBRANCH 105 106
ENDBRANCH  60 105
ENDBRANCH   1  60
TORSDOF 38
ENDMDL
MODEL 5
REMARK VINA RESULT:      -6.4      3.007     12.316
REMARK WARNING: 32 MAX_TORS EXCEEDED!!!
REMARK  38 active torsions:
REMARK  status: ('A' for Active; 'I' for Inactive)
REMARK    1  A    between atoms: N_1  and  CA_2 
REMARK    2  A    between atoms: CA_2  and  CB_5 
REMARK    3  A    between atoms: CA_2  and  C_3 
REMARK       I    between atoms: C_3  and  N_17 
REMARK    4  A    between atoms: CB_5  and  CG_6 
REMARK    5  A    between atoms: CZ_10  and  OH_11 
REMARK    6  A    between atoms: N_17  and  CA_18 
REMARK    7  A    between atoms: CA_18  and  CB_21 
REMARK    8  A    between atoms: CA_18  and  C_19 
REMARK       I    between atoms: C_19  and  N_26 
REMARK    9  A    between atoms: CB_21  and  CG_22 
REMARK   10  A    between atoms: CA_27  and  C_28 
REMARK       I    between atoms: C_28  and  N_33 
REMARK   11  A    between atoms: N_33  and  CA_34 
REMARK   12  A    between atoms: CA_34  and  C_35 
REMARK   13  A    between atoms: CA_34  and  CB_37 
REMARK       I    between atoms: C_35  and  N_43 
REMARK   14  A    between atoms: CB_37  and  CG_38 
REMARK   15  A    between atoms: CG_38  and  CD_39 
REMARK   16  A    between atoms: N_43  and  CA_44 
REMARK   17  A    between atoms: CA_44  and  CB_47 
REMARK   18  A    between atoms: CA_44  and  C_45 
REMARK       I    between atoms: C_45  and  N_57 
REMARK   19  A    between atoms: CB_47  and  CG_48 
REMARK   20  A    between atoms: CZ_52  and  OH_53 
REMARK   21  A    between atoms: N_57  and  CA_58 
REMARK   22  A    between atoms: CA_58  and  CB_61 
REMARK   23  A    between atoms: CA_58  and  C_59 
REMARK       I    between atoms: C_59  and  N_74 
REMARK   24  A    between atoms: CB_61  and  CG_62 
REMARK   25  A    between atoms: CG_62  and  CD_63 
REMARK   26  A    between atoms: CD_63  and  NE_64 
REMARK       I    between atoms: NE_64  and  CZ_65 
REMARK       I    between atoms: CZ_65  and  NH2_66 
REMARK   27  A    between atoms: N_74  and  CA_75 
REMARK   28  A    between atoms: CA_75  and  CB_78 
REMARK   29  A    between atoms: CA_75  and  C_76 
REMARK       I    between atoms: C_76  and  N_85 
REMARK   30  A    between atoms: CB_78  and  CG_79 
REMARK       I    between atoms: CG_79  and  ND2_80 
REMARK   31  A    between atoms: N_85  and  CA_86 
REMARK   32  A    between atoms: CA_86  and  CB_89 
REMARK   33  A    between atoms: CA_86  and  C_87 
REMARK       I    between atoms: C_87  and  N_97 
REMARK   34  A    between atoms: CB_89  and  CG_90 
REMARK   35  A    between atoms: N_97  and  CA_98 
REMARK   36  A    between atoms: CA_98  and  C_99 
REMARK   37  A    between atoms: CA_98  and  CB_102 
REMARK   38  A    between atoms: CB_102  and  CG_103 
ROOT
ATOM      1  C   TYR A   5      -2.325 -16.422   9.130  1.00  0.00     0.241 C 
ATOM      2  O   TYR A   5      -1.939 -16.575  10.286  1.00  0.00    -0.271 OA
ATOM      3  N   ARG A   6      -2.626 -15.203   8.649  1.00  0.00    -0.346 N 
ATOM      4  H   ARG A   6      -2.923 -15.143   7.679  1.00  0.00     0.163 HD
ENDROOT
BRANCH   3   5
ATOM      5  CA  ARG A   6      -2.487 -13.952   9.428  1.00  0.00     0.176 C 
BRANCH   5   6
ATOM      6  CB  ARG A   6      -1.165 -13.263   9.033  1.00  0.00     0.036 C 
BRANCH   6   7
ATOM      7  CG  ARG A   6      -0.073 -13.369  10.122  1.00  0.00     0.023 C 
BRANCH   7   8
ATOM      8  CD  ARG A   6      -0.529 -12.861  11.498  1.00  0.00     0.138 C 
BRANCH   8   9
ATOM      9  NE  ARG A   6       0.428 -11.893  12.078  1.00  0.00    -0.227 N 
ATOM     10  HE  ARG A   6       1.212 -12.293  12.562  1.00  0.00     0.177 HD
ATOM     11  CZ  ARG A   6       0.434 -10.576  11.943  1.00  0.00     0.665 C 
ATOM     12  NH2 ARG A   6       1.428  -9.892  12.417  1.00  0.00    -0.235 N 
ATOM     13  NH1 ARG A   6      -0.506  -9.906  11.339  1.00  0.00    -0.235 N 
ATOM     14 1HH2 ARG A   6       2.276 -10.388  12.618  1.00  0.00     0.174 HD
ATOM     15 2HH2 ARG A   6       1.571  -8.973  12.031  1.00  0.00     0.174 HD
ATOM     16 1HH1 ARG A   6      -1.169 -10.408  10.775  1.00  0.00     0.174 HD
ATOM     17 2HH1 ARG A   6      -0.416  -8.914  11.219  1.00  0.00     0.174 HD
ENDBRANCH   8   9
ENDBRANCH   7   8
ENDBRANCH   6   7
ENDBRANCH   5   6
BRANCH   5  18
ATOM     18  C   ARG A   6      -3.686 -12.989   9.287  1.00  0.00     0.241 C 
ATOM     19  N   ASN A   7      -4.038 -12.542   8.073  1.00  0.00    -0.346 N 
ATOM     20  H   ASN A   7      -3.577 -12.932   7.261  1.00  0.00     0.163 HD
ATOM     21  O   ARG A   6      -4.214 -12.555  10.302  1.00  0.00    -0.271 OA
BRANCH  19  22
ATOM     22  CA  ASN A   7      -5.233 -11.700   7.866  1.00  0.00     0.185 C 
BRANCH  22  23
ATOM     23  CB  ASN A   7      -5.025 -10.722   6.693  1.00  0.00     0.137 C 
BRANCH  23  24
ATOM     24  CG  ASN A   7      -4.940  -9.242   7.006  1.00  0.00     0.217 C 
ATOM     25  ND2 ASN A   7      -4.226  -8.534   6.158  1.00  0.00    -0.370 N 
ATOM     26 2HD2 ASN A   7      -3.615  -9.009   5.496  1.00  0.00     0.159 HD
ATOM     27 1HD2 ASN A   7      -4.200  -7.545   6.282  1.00  0.00     0.159 HD
ATOM     28  OD1 ASN A   7      -5.671  -8.673   7.812  1.00  0.00    -0.274 OA
ENDBRANCH  23  24
ENDBRANCH  22  23
BRANCH  22  29
ATOM     29  C   ASN A   7      -6.520 -12.512   7.599  1.00  0.00     0.241 C 
ATOM     30  N   PHE A   8      -6.756 -12.916   6.342  1.00  0.00    -0.346 N 
ATOM     31  H   PHE A   8      -6.111 -12.621   5.616  1.00  0.00     0.163 HD
ATOM     32  O   ASN A   7      -7.344 -12.645   8.504  1.00  0.00    -0.271 OA
BRANCH  30  33
ATOM     33  CA  PHE A   8      -7.880 -13.778   5.946  1.00  0.00     0.180 C 
BRANCH  33  34
ATOM     34  CB  PHE A   8      -7.821 -13.938   4.412  1.00  0.00     0.073 C 
BRANCH  34  35
ATOM     35  CG  PHE A   8      -9.156 -14.249   3.757  1.00  0.00    -0.056 A 
ATOM     36  CD1 PHE A   8      -9.225 -15.167   2.691  1.00  0.00     0.007 A 
ATOM     37  CE1 PHE A   8     -10.436 -15.352   2.000  1.00  0.00     0.001 A 
ATOM     38  CZ  PHE A   8     -11.579 -14.623   2.374  1.00  0.00     0.000 A 
ATOM     39  CE2 PHE A   8     -11.519 -13.731   3.459  1.00  0.00     0.001 A 
ATOM     40  CD2 PHE A   8     -10.311 -13.549   4.154  1.00  0.00     0.007 A 
ENDBRANCH  34  35
ENDBRANCH  33  34
BRANCH  33  41
ATOM     41  C   PHE A   8      -7.889 -15.140   6.685  1.00  0.00     0.241 C 
ATOM     42  N   TRP A   9      -8.802 -15.299   7.656  1.00  0.00    -0.344 N 
ATOM     43  H   TRP A   9      -9.429 -14.529   7.828  1.00  0.00     0.163 HD
ATOM     44  O   PHE A   8      -7.046 -15.992   6.397  1.00  0.00    -0.271 OA
BRANCH  42  45
ATOM     45  CA  TRP A   9      -8.956 -16.463   8.545  1.00  0.00     0.190 C 
BRANCH  45  46
ATOM     46  C   TRP A   9     -10.325 -17.172   8.462  1.00  0.00     0.197 C 
ATOM     47  OXT TRP A   9     -10.956 -17.069   7.378  1.00  0.00    -0.646 OA
ATOM     48  O   TRP A   9     -10.868 -17.456   9.551  1.00  0.00    -0.646 OA
ENDBRANCH  45  46
BRANCH  45  49
ATOM     49  CB  TRP A   9      -8.666 -15.989   9.977  1.00  0.00     0.077 C 
BRANCH  49  50
ATOM     50  CG  TRP A   9      -7.290 -16.318  10.460  1.00  0.00    -0.028 A 
ATOM     51  CD1 TRP A   9      -6.236 -15.485  10.346  1.00  0.00     0.096 A 
ATOM     52  NE1 TRP A   9      -5.153 -15.999  11.027  1.00  0.00    -0.365 N 
ATOM     53  HE1 TRP A   9      -4.340 -15.445  11.231  1.00  0.00     0.165 HD
ATOM     54  CE2 TRP A   9      -5.483 -17.170  11.674  1.00  0.00     0.042 A 
ATOM     55  CD2 TRP A   9      -6.847 -17.403  11.330  1.00  0.00    -0.002 A 
ATOM     56  CZ2 TRP A   9      -4.772 -17.997  12.553  1.00  0.00     0.030 A 
ATOM     57  CE3 TRP A   9      -7.474 -18.520  11.928  1.00  0.00     0.014 A 
ATOM     58  CZ3 TRP A   9      -6.776 -19.349  12.828  1.00  0.00     0.001 A 
ATOM     59  CH2 TRP A   9      -5.428 -19.092  13.140  1.00  0.00     0.002 A 
ENDBRANCH  49  50
ENDBRANCH  45  49
ENDBRANCH  42  45
ENDBRANCH  33  41
ENDBRANCH  30  33
ENDBRANCH  22  29
ENDBRANCH  19  22
ENDBRANCH   5  18
ENDBRANCH   3   5
BRANCH   1  60
ATOM     60  CA  TYR A   5      -2.747 -17.662   8.321  1.00  0.00     0.180 C 
BRANCH  60  61
ATOM     61  N   TYR A   5      -1.685 -18.122   7.418  1.00  0.00    -0.346 N 
ATOM     62  H   TYR A   5      -1.787 -17.949   6.429  1.00  0.00     0.163 HD
ATOM     63  C   GLU A   4      -0.642 -18.855   7.843  1.00  0.00     0.241 C 
ATOM     64  O   GLU A   4      -0.578 -19.248   9.004  1.00  0.00    -0.271 OA
BRANCH  63  65
ATOM     65  CA  GLU A   4       0.284 -19.455   6.776  1.00  0.00     0.177 C 
BRANCH  65  66
ATOM     66  N   GLU A   4       1.646 -18.904   6.880  1.00  0.00    -0.346 N 
ATOM     67  H   GLU A   4       2.406 -19.572   6.910  1.00  0.00     0.163 HD
ATOM     68  C   PRO A   3       1.941 -17.646   7.224  1.00  0.00     0.241 C 
ATOM     69  O   PRO A   3       1.089 -16.799   7.433  1.00  0.00    -0.271 OA
BRANCH  68  70
ATOM     70  CA  PRO A   3       3.420 -17.248   7.334  1.00  0.00     0.179 C 
ATOM     71  N   PRO A   3       4.342 -18.280   7.855  1.00  0.00    -0.337 N 
ATOM     72  CD  PRO A   3       5.456 -18.432   6.922  1.00  0.00     0.127 C 
ATOM     73  C   ASP A   2       4.256 -18.779   9.117  1.00  0.00     0.243 C 
ATOM     74  CG  PRO A   3       5.457 -17.158   6.079  1.00  0.00     0.022 C 
ATOM     75  CB  PRO A   3       3.969 -16.851   5.956  1.00  0.00     0.037 C 
ATOM     76  O   ASP A   2       3.247 -18.518   9.778  1.00  0.00    -0.271 OA
BRANCH  73  77
ATOM     77  CA  ASP A   2       5.105 -20.014   9.582  1.00  0.00     0.186 C 
BRANCH  77  78
ATOM     78  CB  ASP A   2       4.356 -21.020  10.471  1.00  0.00     0.147 C 
BRANCH  78  79
ATOM     79  CG  ASP A   2       4.957 -21.079  11.866  1.00  0.00     0.175 C 
ATOM     80  OD2 ASP A   2       5.764 -22.020  12.048  1.00  0.00    -0.648 OA
ATOM     81  OD1 ASP A   2       4.857 -20.050  12.546  1.00  0.00    -0.648 OA
ENDBRANCH  78  79
ENDBRANCH  77  78
BRANCH  77  82
ATOM     82  N   ASP A   2       6.413 -19.738  10.231  1.00  0.00    -0.345 N 
ATOM     83  H   ASP A   2       6.338 -19.519  11.212  1.00  0.00     0.163 HD
ATOM     84  C   TYR A   1       7.595 -20.130   9.726  1.00  0.00     0.249 C 
ATOM     85  O   TYR A   1       7.711 -20.521   8.589  1.00  0.00    -0.271 OA
BRANCH  84  86
ATOM     86  CA  TYR A   1       8.894 -19.772  10.418  1.00  0.00     0.278 C 
BRANCH  86  87
ATOM     87  N   TYR A   1       9.544 -20.962  10.991  1.00  0.00    -0.066 N 
ATOM     88  H2  TYR A   1       9.065 -21.254  11.830  1.00  0.00     0.275 HD
ATOM     89  H1  TYR A   1      10.505 -20.738  11.211  1.00  0.00     0.275 HD
ATOM     90  H3  TYR A   1       9.522 -21.716  10.312  1.00  0.00     0.275 HD
ENDBRANCH  86  87
BRANCH  86  91
ATOM     91  CB  TYR A   1       9.845 -18.902   9.597  1.00  0.00     0.081 C 
BRANCH  91  92
ATOM     92  CG  TYR A   1       9.347 -17.474   9.469  1.00  0.00    -0.056 A 
ATOM     93  CD2 TYR A   1       8.562 -17.113   8.350  1.00  0.00     0.010 A 
ATOM     94  CE2 TYR A   1       8.117 -15.788   8.201  1.00  0.00     0.037 A 
ATOM     95  CZ  TYR A   1       8.444 -14.819   9.176  1.00  0.00     0.065 A 
ATOM     96  CE1 TYR A   1       9.196 -15.185  10.309  1.00  0.00     0.037 A 
ATOM     97  CD1 TYR A   1       9.650 -16.514  10.464  1.00  0.00     0.010 A 
BRANCH  95  98
ATOM     98  OH  TYR A   1       8.035 -13.537   9.032  1.00  0.00    -0.361 OA
ATOM     99  HH  TYR A   1       8.381 -13.142   8.231  1.00  0.00     0.217 HD
ENDBRANCH  95  98
ENDBRANCH  91  92
ENDBRANCH  86  91
ENDBRANCH  84  86
ENDBRANCH  77  82
ENDBRANCH  73  77
ENDBRANCH  68  70
ENDBRANCH  65  66
BRANCH  65 100
ATOM    100  CB  GLU A   4       0.351 -20.993   6.902  1.00  0.00     0.045 C 
BRANCH 100 101
ATOM    101  CG  GLU A   4       1.550 -21.542   7.692  1.00  0.00     0.116 C 
BRANCH 101 102
ATOM    102  CD  GLU A   4       2.629 -22.121   6.761  1.00  0.00     0.172 C 
ATOM    103  OE2 GLU A   4       3.479 -21.308   6.335  1.00  0.00    -0.648 OA
ATOM    104  OE1 GLU A   4       2.385 -23.233   6.229  1.00  0.00    -0.648 OA
ENDBRANCH 101 102
ENDBRANCH 100 101
ENDBRANCH  65 100
ENDBRANCH  63  65
ENDBRANCH  60  61
BRANCH  60 105
ATOM    105  CB  TYR A   5      -3.213 -18.809   9.236  1.00  0.00     0.073 C 
BRANCH 105 106
ATOM    106  CG  TYR A   5      -4.645 -19.296   9.034  1.00  0.00    -0.056 A 
ATOM    107  CD1 TYR A   5      -5.503 -18.652   8.111  1.00  0.00     0.010 A 
ATOM    108  CE1 TYR A   5      -6.771 -19.210   7.818  1.00  0.00     0.037 A 
ATOM    109  CZ  TYR A   5      -7.181 -20.397   8.454  1.00  0.00     0.065 A 
ATOM    110  CE2 TYR A   5      -6.338 -21.023   9.397  1.00  0.00     0.037 A 
ATOM    111  CD2 TYR A   5      -5.071 -20.479   9.680  1.00  0.00     0.010 A 
BRANCH 109 112
ATOM    112  OH  TYR A   5      -8.380 -20.947   8.155  1.00  0.00    -0.361 OA
ATOM    113  HH  TYR A   5      -8.246 -21.812   7.764  1.00  0.00     0.217 HD
ENDBRANCH 109 112
ENDBRANCH 105 106
ENDBRANCH  60 105
ENDBRANCH   1  60
TORSDOF 38
ENDMDL
MODEL 6
REMARK VINA RESULT:      -6.4     16.002     22.558
REMARK WARNING: 32 MAX_TORS EXCEEDED!!!
REMARK  38 active torsions:
REMARK  status: ('A' for Active; 'I' for Inactive)
REMARK    1  A    between atoms: N_1  and  CA_2 
REMARK    2  A    between atoms: CA_2  and  CB_5 
REMARK    3  A    between atoms: CA_2  and  C_3 
REMARK       I    between atoms: C_3  and  N_17 
REMARK    4  A    between atoms: CB_5  and  CG_6 
REMARK    5  A    between atoms: CZ_10  and  OH_11 
REMARK    6  A    between atoms: N_17  and  CA_18 
REMARK    7  A    between atoms: CA_18  and  CB_21 
REMARK    8  A    between atoms: CA_18  and  C_19 
REMARK       I    between atoms: C_19  and  N_26 
REMARK    9  A    between atoms: CB_21  and  CG_22 
REMARK   10  A    between atoms: CA_27  and  C_28 
REMARK       I    between atoms: C_28  and  N_33 
REMARK   11  A    between atoms: N_33  and  CA_34 
REMARK   12  A    between atoms: CA_34  and  C_35 
REMARK   13  A    between atoms: CA_34  and  CB_37 
REMARK       I    between atoms: C_35  and  N_43 
REMARK   14  A    between atoms: CB_37  and  CG_38 
REMARK   15  A    between atoms: CG_38  and  CD_39 
REMARK   16  A    between atoms: N_43  and  CA_44 
REMARK   17  A    between atoms: CA_44  and  CB_47 
REMARK   18  A    between atoms: CA_44  and  C_45 
REMARK       I    between atoms: C_45  and  N_57 
REMARK   19  A    between atoms: CB_47  and  CG_48 
REMARK   20  A    between atoms: CZ_52  and  OH_53 
REMARK   21  A    between atoms: N_57  and  CA_58 
REMARK   22  A    between atoms: CA_58  and  CB_61 
REMARK   23  A    between atoms: CA_58  and  C_59 
REMARK       I    between atoms: C_59  and  N_74 
REMARK   24  A    between atoms: CB_61  and  CG_62 
REMARK   25  A    between atoms: CG_62  and  CD_63 
REMARK   26  A    between atoms: CD_63  and  NE_64 
REMARK       I    between atoms: NE_64  and  CZ_65 
REMARK       I    between atoms: CZ_65  and  NH2_66 
REMARK   27  A    between atoms: N_74  and  CA_75 
REMARK   28  A    between atoms: CA_75  and  CB_78 
REMARK   29  A    between atoms: CA_75  and  C_76 
REMARK       I    between atoms: C_76  and  N_85 
REMARK   30  A    between atoms: CB_78  and  CG_79 
REMARK       I    between atoms: CG_79  and  ND2_80 
REMARK   31  A    between atoms: N_85  and  CA_86 
REMARK   32  A    between atoms: CA_86  and  CB_89 
REMARK   33  A    between atoms: CA_86  and  C_87 
REMARK       I    between atoms: C_87  and  N_97 
REMARK   34  A    between atoms: CB_89  and  CG_90 
REMARK   35  A    between atoms: N_97  and  CA_98 
REMARK   36  A    between atoms: CA_98  and  C_99 
REMARK   37  A    between atoms: CA_98  and  CB_102 
REMARK   38  A    between atoms: CB_102  and  CG_103 
ROOT
ATOM      1  C   TYR A   5      -7.661   2.876   6.801  1.00  0.00     0.241 C 
ATOM      2  O   TYR A   5      -7.134   3.149   7.877  1.00  0.00    -0.271 OA
ATOM      3  N   ARG A   6      -6.973   2.266   5.820  1.00  0.00    -0.346 N 
ATOM      4  H   ARG A   6      -7.473   2.053   4.961  1.00  0.00     0.163 HD
ENDROOT
BRANCH   3   5
ATOM      5  CA  ARG A   6      -5.562   1.838   5.947  1.00  0.00     0.176 C 
BRANCH   5   6
ATOM      6  CB  ARG A   6      -5.347   0.571   5.094  1.00  0.00     0.036 C 
BRANCH   6   7
ATOM      7  CG  ARG A   6      -6.569   0.213   4.217  1.00  0.00     0.023 C 
BRANCH   7   8
ATOM      8  CD  ARG A   6      -6.405  -1.107   3.447  1.00  0.00     0.138 C 
BRANCH   8   9
ATOM      9  NE  ARG A   6      -7.632  -1.476   2.708  1.00  0.00    -0.227 N 
ATOM     10  HE  ARG A   6      -7.999  -0.771   2.094  1.00  0.00     0.177 HD
ATOM     11  CZ  ARG A   6      -8.238  -2.653   2.676  1.00  0.00     0.665 C 
ATOM     12  NH2 ARG A   6      -9.236  -2.833   1.869  1.00  0.00    -0.235 N 
ATOM     13  NH1 ARG A   6      -7.882  -3.670   3.408  1.00  0.00    -0.235 N 
ATOM     14 1HH2 ARG A   6      -9.340  -2.186   1.111  1.00  0.00     0.174 HD
ATOM     15 2HH2 ARG A   6      -9.460  -3.785   1.630  1.00  0.00     0.174 HD
ATOM     16 1HH1 ARG A   6      -6.993  -3.640   3.875  1.00  0.00     0.174 HD
ATOM     17 2HH1 ARG A   6      -8.346  -4.553   3.298  1.00  0.00     0.174 HD
ENDBRANCH   8   9
ENDBRANCH   7   8
ENDBRANCH   6   7
ENDBRANCH   5   6
BRANCH   5  18
ATOM     18  C   ARG A   6      -4.538   2.937   5.586  1.00  0.00     0.241 C 
ATOM     19  N   ASN A   7      -4.498   4.068   6.306  1.00  0.00    -0.346 N 
ATOM     20  H   ASN A   7      -5.067   4.131   7.140  1.00  0.00     0.163 HD
ATOM     21  O   ARG A   6      -3.867   2.804   4.571  1.00  0.00    -0.271 OA
BRANCH  19  22
ATOM     22  CA  ASN A   7      -3.478   5.109   6.070  1.00  0.00     0.185 C 
BRANCH  22  23
ATOM     23  CB  ASN A   7      -4.133   6.451   5.692  1.00  0.00     0.137 C 
BRANCH  23  24
ATOM     24  CG  ASN A   7      -4.704   6.597   4.296  1.00  0.00     0.217 C 
ATOM     25  ND2 ASN A   7      -4.004   7.362   3.486  1.00  0.00    -0.370 N 
ATOM     26 2HD2 ASN A   7      -3.277   7.965   3.867  1.00  0.00     0.159 HD
ATOM     27 1HD2 ASN A   7      -4.302   7.431   2.536  1.00  0.00     0.159 HD
ATOM     28  OD1 ASN A   7      -5.589   5.876   3.843  1.00  0.00    -0.274 OA
ENDBRANCH  23  24
ENDBRANCH  22  23
BRANCH  22  29
ATOM     29  C   ASN A   7      -2.548   5.346   7.281  1.00  0.00     0.241 C 
ATOM     30  N   PHE A   8      -1.224   5.331   7.066  1.00  0.00    -0.346 N 
ATOM     31  H   PHE A   8      -0.894   5.108   6.133  1.00  0.00     0.163 HD
ATOM     32  O   ASN A   7      -3.036   5.404   8.409  1.00  0.00    -0.271 OA
BRANCH  30  33
ATOM     33  CA  PHE A   8      -0.216   5.638   8.092  1.00  0.00     0.180 C 
BRANCH  33  34
ATOM     34  CB  PHE A   8       0.292   4.295   8.657  1.00  0.00     0.073 C 
BRANCH  34  35
ATOM     35  CG  PHE A   8      -0.003   4.076  10.130  1.00  0.00    -0.056 A 
ATOM     36  CD1 PHE A   8      -1.056   4.773  10.753  1.00  0.00     0.007 A 
ATOM     37  CE1 PHE A   8      -1.243   4.670  12.144  1.00  0.00     0.001 A 
ATOM     38  CZ  PHE A   8      -0.380   3.869  12.912  1.00  0.00     0.000 A 
ATOM     39  CE2 PHE A   8       0.651   3.147  12.287  1.00  0.00     0.001 A 
ATOM     40  CD2 PHE A   8       0.835   3.244  10.897  1.00  0.00     0.007 A 
ENDBRANCH  34  35
ENDBRANCH  33  34
BRANCH  33  41
ATOM     41  C   PHE A   8       0.934   6.532   7.563  1.00  0.00     0.241 C 
ATOM     42  N   TRP A   9       1.028   7.769   8.077  1.00  0.00    -0.344 N 
ATOM     43  H   TRP A   9       0.355   8.026   8.782  1.00  0.00     0.163 HD
ATOM     44  O   PHE A   8       1.675   6.106   6.675  1.00  0.00    -0.271 OA
BRANCH  42  45
ATOM     45  CA  TRP A   9       1.979   8.822   7.683  1.00  0.00     0.190 C 
BRANCH  45  46
ATOM     46  C   TRP A   9       2.967   9.258   8.787  1.00  0.00     0.197 C 
ATOM     47  OXT TRP A   9       2.732   8.850   9.955  1.00  0.00    -0.646 OA
ATOM     48  O   TRP A   9       3.674  10.256   8.534  1.00  0.00    -0.646 OA
ENDBRANCH  45  46
BRANCH  45  49
ATOM     49  CB  TRP A   9       1.157  10.016   7.174  1.00  0.00     0.077 C 
BRANCH  49  50
ATOM     50  CG  TRP A   9       0.121  10.496   8.139  1.00  0.00    -0.028 A 
ATOM     51  CD1 TRP A   9       0.307  11.526   8.989  1.00  0.00     0.096 A 
ATOM     52  NE1 TRP A   9      -0.877  11.831   9.626  1.00  0.00    -0.365 N 
ATOM     53  HE1 TRP A   9      -1.000  12.684  10.144  1.00  0.00     0.165 HD
ATOM     54  CE2 TRP A   9      -1.908  11.043   9.164  1.00  0.00     0.042 A 
ATOM     55  CD2 TRP A   9      -1.301  10.174   8.209  1.00  0.00    -0.002 A 
ATOM     56  CZ2 TRP A   9      -3.285  11.038   9.424  1.00  0.00     0.030 A 
ATOM     57  CE3 TRP A   9      -2.159   9.294   7.512  1.00  0.00     0.014 A 
ATOM     58  CZ3 TRP A   9      -3.548   9.292   7.751  1.00  0.00     0.001 A 
ATOM     59  CH2 TRP A   9      -4.112  10.159   8.705  1.00  0.00     0.002 A 
ENDBRANCH  49  50
ENDBRANCH  45  49
ENDBRANCH  42  45
ENDBRANCH  33  41
ENDBRANCH  30  33
ENDBRANCH  22  29
ENDBRANCH  19  22
ENDBRANCH   5  18
ENDBRANCH   3   5
BRANCH   1  60
ATOM     60  CA  TYR A   5      -9.030   3.496   6.470  1.00  0.00     0.180 C 
BRANCH  60  61
ATOM     61  N   TYR A   5     -10.109   2.502   6.489  1.00  0.00    -0.346 N 
ATOM     62  H   TYR A   5     -10.543   2.281   7.374  1.00  0.00     0.163 HD
ATOM     63  C   GLU A   4     -10.467   1.801   5.401  1.00  0.00     0.241 C 
ATOM     64  O   GLU A   4      -9.839   1.902   4.351  1.00  0.00    -0.271 OA
BRANCH  63  65
ATOM     65  CA  GLU A   4     -11.457   0.644   5.596  1.00  0.00     0.177 C 
BRANCH  65  66
ATOM     66  N   GLU A   4     -10.890  -0.403   6.465  1.00  0.00    -0.346 N 
ATOM     67  H   GLU A   4     -10.805  -0.179   7.448  1.00  0.00     0.163 HD
ATOM     68  C   PRO A   3     -10.227  -1.481   6.036  1.00  0.00     0.241 C 
ATOM     69  O   PRO A   3     -10.073  -1.738   4.853  1.00  0.00    -0.271 OA
BRANCH  68  70
ATOM     70  CA  PRO A   3      -9.656  -2.450   7.081  1.00  0.00     0.179 C 
ATOM     71  N   PRO A   3      -9.178  -1.848   8.344  1.00  0.00    -0.337 N 
ATOM     72  CD  PRO A   3      -9.809  -2.541   9.465  1.00  0.00     0.127 C 
ATOM     73  C   ASP A   2      -8.133  -0.980   8.400  1.00  0.00     0.243 C 
ATOM     74  CG  PRO A   3     -10.299  -3.872   8.898  1.00  0.00     0.022 C 
ATOM     75  CB  PRO A   3     -10.718  -3.485   7.483  1.00  0.00     0.037 C 
ATOM     76  O   ASP A   2      -7.706  -0.515   7.340  1.00  0.00    -0.271 OA
BRANCH  73  77
ATOM     77  CA  ASP A   2      -7.773  -0.196   9.711  1.00  0.00     0.186 C 
BRANCH  77  78
ATOM     78  CB  ASP A   2      -8.932   0.604  10.328  1.00  0.00     0.147 C 
BRANCH  78  79
ATOM     79  CG  ASP A   2      -8.428   1.605  11.355  1.00  0.00     0.175 C 
ATOM     80  OD2 ASP A   2      -7.860   1.093  12.348  1.00  0.00    -0.648 OA
ATOM     81  OD1 ASP A   2      -8.328   2.776  10.971  1.00  0.00    -0.648 OA
ENDBRANCH  78  79
ENDBRANCH  77  78
BRANCH  77  82
ATOM     82  N   ASP A   2      -6.590   0.701   9.667  1.00  0.00    -0.345 N 
ATOM     83  H   ASP A   2      -6.801   1.658   9.904  1.00  0.00     0.163 HD
ATOM     84  C   TYR A   1      -5.320   0.266   9.728  1.00  0.00     0.249 C 
ATOM     85  O   TYR A   1      -5.031  -0.898   9.575  1.00  0.00    -0.271 OA
BRANCH  84  86
ATOM     86  CA  TYR A   1      -4.160   1.234   9.630  1.00  0.00     0.278 C 
BRANCH  86  87
ATOM     87  N   TYR A   1      -4.626   2.611   9.399  1.00  0.00    -0.066 N 
ATOM     88  H2  TYR A   1      -3.983   3.102   8.795  1.00  0.00     0.275 HD
ATOM     89  H1  TYR A   1      -4.690   3.091  10.286  1.00  0.00     0.275 HD
ATOM     90  H3  TYR A   1      -5.542   2.587   8.964  1.00  0.00     0.275 HD
ENDBRANCH  86  87
BRANCH  86  91
ATOM     91  CB  TYR A   1      -3.132   1.128  10.756  1.00  0.00     0.081 C 
BRANCH  91  92
ATOM     92  CG  TYR A   1      -1.775   0.671  10.250  1.00  0.00    -0.056 A 
ATOM     93  CD2 TYR A   1      -0.934  -0.076  11.106  1.00  0.00     0.010 A 
ATOM     94  CE2 TYR A   1       0.338  -0.482  10.663  1.00  0.00     0.037 A 
ATOM     95  CZ  TYR A   1       0.769  -0.155   9.359  1.00  0.00     0.065 A 
ATOM     96  CE1 TYR A   1      -0.083   0.558   8.493  1.00  0.00     0.037 A 
ATOM     97  CD1 TYR A   1      -1.360   0.973   8.931  1.00  0.00     0.010 A 
BRANCH  95  98
ATOM     98  OH  TYR A   1       1.998  -0.527   8.931  1.00  0.00    -0.361 OA
ATOM     99  HH  TYR A   1       2.002  -0.725   7.994  1.00  0.00     0.217 HD
ENDBRANCH  95  98
ENDBRANCH  91  92
ENDBRANCH  86  91
ENDBRANCH  84  86
ENDBRANCH  77  82
ENDBRANCH  73  77
ENDBRANCH  68  70
ENDBRANCH  65  66
BRANCH  65 100
ATOM    100  CB  GLU A   4     -12.782   1.145   6.209  1.00  0.00     0.045 C 
BRANCH 100 101
ATOM    101  CG  GLU A   4     -13.044   0.718   7.662  1.00  0.00     0.116 C 
BRANCH 101 102
ATOM    102  CD  GLU A   4     -13.108   1.929   8.609  1.00  0.00     0.172 C 
ATOM    103  OE2 GLU A   4     -12.047   2.578   8.740  1.00  0.00    -0.648 OA
ATOM    104  OE1 GLU A   4     -14.066   1.967   9.421  1.00  0.00    -0.648 OA
ENDBRANCH 101 102
ENDBRANCH 100 101
ENDBRANCH  65 100
ENDBRANCH  63  65
ENDBRANCH  60  61
BRANCH  60 105
ATOM    105  CB  TYR A   5      -9.364   4.675   7.405  1.00  0.00     0.073 C 
BRANCH 105 106
ATOM    106  CG  TYR A   5      -8.707   6.010   7.070  1.00  0.00    -0.056 A 
ATOM    107  CD1 TYR A   5      -7.821   6.629   7.984  1.00  0.00     0.010 A 
ATOM    108  CE1 TYR A   5      -7.099   7.783   7.596  1.00  0.00     0.037 A 
ATOM    109  CZ  TYR A   5      -7.271   8.320   6.307  1.00  0.00     0.065 A 
ATOM    110  CE2 TYR A   5      -8.177   7.722   5.405  1.00  0.00     0.037 A 
ATOM    111  CD2 TYR A   5      -8.886   6.566   5.782  1.00  0.00     0.010 A 
BRANCH 109 112
ATOM    112  OH  TYR A   5      -6.561   9.407   5.925  1.00  0.00    -0.361 OA
ATOM    113  HH  TYR A   5      -5.625   9.197   5.939  1.00  0.00     0.217 HD
ENDBRANCH 109 112
ENDBRANCH 105 106
ENDBRANCH  60 105
ENDBRANCH   1  60
TORSDOF 38
ENDMDL
MODEL 7
REMARK VINA RESULT:      -6.4     15.862     23.243
REMARK WARNING: 32 MAX_TORS EXCEEDED!!!
REMARK  38 active torsions:
REMARK  status: ('A' for Active; 'I' for Inactive)
REMARK    1  A    between atoms: N_1  and  CA_2 
REMARK    2  A    between atoms: CA_2  and  CB_5 
REMARK    3  A    between atoms: CA_2  and  C_3 
REMARK       I    between atoms: C_3  and  N_17 
REMARK    4  A    between atoms: CB_5  and  CG_6 
REMARK    5  A    between atoms: CZ_10  and  OH_11 
REMARK    6  A    between atoms: N_17  and  CA_18 
REMARK    7  A    between atoms: CA_18  and  CB_21 
REMARK    8  A    between atoms: CA_18  and  C_19 
REMARK       I    between atoms: C_19  and  N_26 
REMARK    9  A    between atoms: CB_21  and  CG_22 
REMARK   10  A    between atoms: CA_27  and  C_28 
REMARK       I    between atoms: C_28  and  N_33 
REMARK   11  A    between atoms: N_33  and  CA_34 
REMARK   12  A    between atoms: CA_34  and  C_35 
REMARK   13  A    between atoms: CA_34  and  CB_37 
REMARK       I    between atoms: C_35  and  N_43 
REMARK   14  A    between atoms: CB_37  and  CG_38 
REMARK   15  A    between atoms: CG_38  and  CD_39 
REMARK   16  A    between atoms: N_43  and  CA_44 
REMARK   17  A    between atoms: CA_44  and  CB_47 
REMARK   18  A    between atoms: CA_44  and  C_45 
REMARK       I    between atoms: C_45  and  N_57 
REMARK   19  A    between atoms: CB_47  and  CG_48 
REMARK   20  A    between atoms: CZ_52  and  OH_53 
REMARK   21  A    between atoms: N_57  and  CA_58 
REMARK   22  A    between atoms: CA_58  and  CB_61 
REMARK   23  A    between atoms: CA_58  and  C_59 
REMARK       I    between atoms: C_59  and  N_74 
REMARK   24  A    between atoms: CB_61  and  CG_62 
REMARK   25  A    between atoms: CG_62  and  CD_63 
REMARK   26  A    between atoms: CD_63  and  NE_64 
REMARK       I    between atoms: NE_64  and  CZ_65 
REMARK       I    between atoms: CZ_65  and  NH2_66 
REMARK   27  A    between atoms: N_74  and  CA_75 
REMARK   28  A    between atoms: CA_75  and  CB_78 
REMARK   29  A    between atoms: CA_75  and  C_76 
REMARK       I    between atoms: C_76  and  N_85 
REMARK   30  A    between atoms: CB_78  and  CG_79 
REMARK       I    between atoms: CG_79  and  ND2_80 
REMARK   31  A    between atoms: N_85  and  CA_86 
REMARK   32  A    between atoms: CA_86  and  CB_89 
REMARK   33  A    between atoms: CA_86  and  C_87 
REMARK       I    between atoms: C_87  and  N_97 
REMARK   34  A    between atoms: CB_89  and  CG_90 
REMARK   35  A    between atoms: N_97  and  CA_98 
REMARK   36  A    between atoms: CA_98  and  C_99 
REMARK   37  A    between atoms: CA_98  and  CB_102 
REMARK   38  A    between atoms: CB_102  and  CG_103 
ROOT
ATOM      1  C   TYR A   5      -5.530   0.328   7.691  1.00  0.00     0.241 C 
ATOM      2  O   TYR A   5      -5.086  -0.591   7.006  1.00  0.00    -0.271 OA
ATOM      3  N   ARG A   6      -5.835   1.520   7.148  1.00  0.00    -0.346 N 
ATOM      4  H   ARG A   6      -6.215   2.232   7.766  1.00  0.00     0.163 HD
ENDROOT
BRANCH   3   5
ATOM      5  CA  ARG A   6      -5.708   1.825   5.705  1.00  0.00     0.176 C 
BRANCH   5   6
ATOM      6  CB  ARG A   6      -7.117   2.044   5.116  1.00  0.00     0.036 C 
BRANCH   6   7
ATOM      7  CG  ARG A   6      -8.229   1.327   5.915  1.00  0.00     0.023 C 
BRANCH   7   8
ATOM      8  CD  ARG A   6      -8.648  -0.021   5.306  1.00  0.00     0.138 C 
BRANCH   8   9
ATOM      9  NE  ARG A   6      -7.505  -0.730   4.689  1.00  0.00    -0.227 N 
ATOM     10  HE  ARG A   6      -6.658  -0.742   5.228  1.00  0.00     0.177 HD
ATOM     11  CZ  ARG A   6      -7.498  -1.439   3.571  1.00  0.00     0.665 C 
ATOM     12  NH2 ARG A   6      -6.433  -2.102   3.245  1.00  0.00    -0.235 N 
ATOM     13  NH1 ARG A   6      -8.517  -1.529   2.764  1.00  0.00    -0.235 N 
ATOM     14 1HH2 ARG A   6      -5.762  -2.283   3.967  1.00  0.00     0.174 HD
ATOM     15 2HH2 ARG A   6      -6.553  -2.863   2.597  1.00  0.00     0.174 HD
ATOM     16 1HH1 ARG A   6      -9.415  -1.216   3.087  1.00  0.00     0.174 HD
ATOM     17 2HH1 ARG A   6      -8.468  -2.128   1.961  1.00  0.00     0.174 HD
ENDBRANCH   8   9
ENDBRANCH   7   8
ENDBRANCH   6   7
ENDBRANCH   5   6
BRANCH   5  18
ATOM     18  C   ARG A   6      -4.779   3.021   5.397  1.00  0.00     0.241 C 
ATOM     19  N   ASN A   7      -5.087   4.238   5.866  1.00  0.00    -0.346 N 
ATOM     20  H   ASN A   7      -5.866   4.327   6.505  1.00  0.00     0.163 HD
ATOM     21  O   ARG A   6      -3.844   2.854   4.625  1.00  0.00    -0.271 OA
BRANCH  19  22
ATOM     22  CA  ASN A   7      -4.188   5.396   5.686  1.00  0.00     0.185 C 
BRANCH  22  23
ATOM     23  CB  ASN A   7      -4.874   6.509   4.872  1.00  0.00     0.137 C 
BRANCH  23  24
ATOM     24  CG  ASN A   7      -4.132   7.082   3.682  1.00  0.00     0.217 C 
ATOM     25  ND2 ASN A   7      -3.664   8.299   3.852  1.00  0.00    -0.370 N 
ATOM     26 2HD2 ASN A   7      -3.988   8.857   4.639  1.00  0.00     0.159 HD
ATOM     27 1HD2 ASN A   7      -3.108   8.691   3.122  1.00  0.00     0.159 HD
ATOM     28  OD1 ASN A   7      -3.752   6.409   2.728  1.00  0.00    -0.274 OA
ENDBRANCH  23  24
ENDBRANCH  22  23
BRANCH  22  29
ATOM     29  C   ASN A   7      -3.693   6.003   7.018  1.00  0.00     0.241 C 
ATOM     30  N   PHE A   8      -2.387   6.291   7.127  1.00  0.00    -0.346 N 
ATOM     31  H   PHE A   8      -1.777   6.044   6.355  1.00  0.00     0.163 HD
ATOM     32  O   ASN A   7      -4.469   6.076   7.970  1.00  0.00    -0.271 OA
BRANCH  30  33
ATOM     33  CA  PHE A   8      -1.781   6.962   8.287  1.00  0.00     0.180 C 
BRANCH  33  34
ATOM     34  CB  PHE A   8      -0.697   6.020   8.851  1.00  0.00     0.073 C 
BRANCH  34  35
ATOM     35  CG  PHE A   8      -0.972   5.508  10.255  1.00  0.00    -0.056 A 
ATOM     36  CD1 PHE A   8      -2.286   5.494  10.759  1.00  0.00     0.007 A 
ATOM     37  CE1 PHE A   8      -2.521   5.145  12.101  1.00  0.00     0.001 A 
ATOM     38  CZ  PHE A   8      -1.444   4.808  12.940  1.00  0.00     0.000 A 
ATOM     39  CE2 PHE A   8      -0.135   4.789  12.429  1.00  0.00     0.001 A 
ATOM     40  CD2 PHE A   8       0.100   5.132  11.086  1.00  0.00     0.007 A 
ENDBRANCH  34  35
ENDBRANCH  33  34
BRANCH  33  41
ATOM     41  C   PHE A   8      -1.228   8.370   7.953  1.00  0.00     0.241 C 
ATOM     42  N   TRP A   9       0.047   8.618   8.290  1.00  0.00    -0.344 N 
ATOM     43  H   TRP A   9       0.562   7.867   8.724  1.00  0.00     0.163 HD
ATOM     44  O   PHE A   8      -1.974   9.211   7.446  1.00  0.00    -0.271 OA
BRANCH  42  45
ATOM     45  CA  TRP A   9       0.769   9.894   8.148  1.00  0.00     0.190 C 
BRANCH  45  46
ATOM     46  C   TRP A   9       2.095   9.810   7.360  1.00  0.00     0.197 C 
ATOM     47  OXT TRP A   9       3.119  10.287   7.914  1.00  0.00    -0.646 OA
ATOM     48  O   TRP A   9       1.994   9.639   6.126  1.00  0.00    -0.646 OA
ENDBRANCH  45  46
BRANCH  45  49
ATOM     49  CB  TRP A   9       1.002  10.450   9.562  1.00  0.00     0.077 C 
BRANCH  49  50
ATOM     50  CG  TRP A   9      -0.255  10.771  10.303  1.00  0.00    -0.028 A 
ATOM     51  CD1 TRP A   9      -1.157  11.685   9.890  1.00  0.00     0.096 A 
ATOM     52  NE1 TRP A   9      -2.278  11.636  10.691  1.00  0.00    -0.365 N 
ATOM     53  HE1 TRP A   9      -3.137  12.090  10.434  1.00  0.00     0.165 HD
ATOM     54  CE2 TRP A   9      -2.177  10.632  11.628  1.00  0.00     0.042 A 
ATOM     55  CD2 TRP A   9      -0.889  10.058  11.408  1.00  0.00    -0.002 A 
ATOM     56  CZ2 TRP A   9      -3.074  10.133  12.581  1.00  0.00     0.030 A 
ATOM     57  CE3 TRP A   9      -0.547   8.936  12.196  1.00  0.00     0.014 A 
ATOM     58  CZ3 TRP A   9      -1.449   8.413  13.145  1.00  0.00     0.001 A 
ATOM     59  CH2 TRP A   9      -2.708   9.009  13.340  1.00  0.00     0.002 A 
ENDBRANCH  49  50
ENDBRANCH  45  49
ENDBRANCH  42  45
ENDBRANCH  33  41
ENDBRANCH  30  33
ENDBRANCH  22  29
ENDBRANCH  19  22
ENDBRANCH   5  18
ENDBRANCH   3   5
BRANCH   1  60
ATOM     60  CA  TYR A   5      -5.462   0.208   9.224  1.00  0.00     0.180 C 
BRANCH  60  61
ATOM     61  N   TYR A   5      -4.189   0.699   9.762  1.00  0.00    -0.346 N 
ATOM     62  H   TYR A   5      -3.815   1.564   9.399  1.00  0.00     0.163 HD
ATOM     63  C   GLU A   4      -3.453  -0.007  10.636  1.00  0.00     0.241 C 
ATOM     64  O   GLU A   4      -3.777  -1.146  10.959  1.00  0.00    -0.271 OA
BRANCH  63  65
ATOM     65  CA  GLU A   4      -2.044   0.511  10.960  1.00  0.00     0.177 C 
BRANCH  65  66
ATOM     66  N   GLU A   4      -1.008  -0.362  10.381  1.00  0.00    -0.346 N 
ATOM     67  H   GLU A   4      -1.134  -0.638   9.416  1.00  0.00     0.163 HD
ATOM     68  C   PRO A   3      -0.096  -1.040  11.085  1.00  0.00     0.241 C 
ATOM     69  O   PRO A   3       0.006  -0.954  12.297  1.00  0.00    -0.271 OA
BRANCH  68  70
ATOM     70  CA  PRO A   3       0.883  -1.947  10.326  1.00  0.00     0.179 C 
ATOM     71  N   PRO A   3       2.287  -1.488  10.255  1.00  0.00    -0.337 N 
ATOM     72  CD  PRO A   3       3.160  -2.565  10.714  1.00  0.00     0.127 C 
ATOM     73  C   ASP A   2       2.659  -0.346   9.617  1.00  0.00     0.243 C 
ATOM     74  CG  PRO A   3       2.324  -3.839  10.610  1.00  0.00     0.022 C 
ATOM     75  CB  PRO A   3       0.929  -3.340  10.972  1.00  0.00     0.037 C 
ATOM     76  O   ASP A   2       1.775   0.441   9.269  1.00  0.00    -0.271 OA
BRANCH  73  77
ATOM     77  CA  ASP A   2       4.114   0.232   9.728  1.00  0.00     0.186 C 
BRANCH  77  78
ATOM     78  CB  ASP A   2       4.563   0.593  11.154  1.00  0.00     0.147 C 
BRANCH  78  79
ATOM     79  CG  ASP A   2       3.637   1.623  11.780  1.00  0.00     0.175 C 
ATOM     80  OD2 ASP A   2       3.007   1.217  12.784  1.00  0.00    -0.648 OA
ATOM     81  OD1 ASP A   2       3.839   2.801  11.462  1.00  0.00    -0.648 OA
ENDBRANCH  78  79
ENDBRANCH  77  78
BRANCH  77  82
ATOM     82  N   ASP A   2       4.462   1.378   8.851  1.00  0.00    -0.345 N 
ATOM     83  H   ASP A   2       3.857   2.176   8.971  1.00  0.00     0.163 HD
ATOM     84  C   TYR A   1       5.664   1.537   8.271  1.00  0.00     0.249 C 
ATOM     85  O   TYR A   1       6.475   0.643   8.214  1.00  0.00    -0.271 OA
BRANCH  84  86
ATOM     86  CA  TYR A   1       5.935   2.708   7.349  1.00  0.00     0.278 C 
BRANCH  86  87
ATOM     87  N   TYR A   1       6.816   2.323   6.234  1.00  0.00    -0.066 N 
ATOM     88  H2  TYR A   1       7.028   1.337   6.280  1.00  0.00     0.275 HD
ATOM     89  H1  TYR A   1       7.673   2.856   6.293  1.00  0.00     0.275 HD
ATOM     90  H3  TYR A   1       6.354   2.526   5.355  1.00  0.00     0.275 HD
ENDBRANCH  86  87
BRANCH  86  91
ATOM     91  CB  TYR A   1       4.693   3.476   6.896  1.00  0.00     0.081 C 
BRANCH  91  92
ATOM     92  CG  TYR A   1       4.485   4.748   7.697  1.00  0.00    -0.056 A 
ATOM     93  CD2 TYR A   1       5.610   5.502   8.104  1.00  0.00     0.010 A 
ATOM     94  CE2 TYR A   1       5.436   6.668   8.871  1.00  0.00     0.037 A 
ATOM     95  CZ  TYR A   1       4.136   7.093   9.225  1.00  0.00     0.065 A 
ATOM     96  CE1 TYR A   1       3.013   6.363   8.790  1.00  0.00     0.037 A 
ATOM     97  CD1 TYR A   1       3.180   5.188   8.022  1.00  0.00     0.010 A 
BRANCH  95  98
ATOM     98  OH  TYR A   1       3.961   8.204   9.977  1.00  0.00    -0.361 OA
ATOM     99  HH  TYR A   1       4.791   8.532  10.325  1.00  0.00     0.217 HD
ENDBRANCH  95  98
ENDBRANCH  91  92
ENDBRANCH  86  91
ENDBRANCH  84  86
ENDBRANCH  77  82
ENDBRANCH  73  77
ENDBRANCH  68  70
ENDBRANCH  65  66
BRANCH  65 100
ATOM    100  CB  GLU A   4      -1.847   1.948  10.429  1.00  0.00     0.045 C 
BRANCH 100 101
ATOM    101  CG  GLU A   4      -1.155   2.060   9.060  1.00  0.00     0.116 C 
BRANCH 101 102
ATOM    102  CD  GLU A   4      -2.082   2.684   8.003  1.00  0.00     0.172 C 
ATOM    103  OE2 GLU A   4      -1.518   3.177   7.002  1.00  0.00    -0.648 OA
ATOM    104  OE1 GLU A   4      -3.252   2.965   8.366  1.00  0.00    -0.648 OA
ENDBRANCH 101 102
ENDBRANCH 100 101
ENDBRANCH  65 100
ENDBRANCH  63  65
ENDBRANCH  60  61
BRANCH  60 105
ATOM    105  CB  TYR A   5      -6.647   0.920   9.904  1.00  0.00     0.073 C 
BRANCH 105 106
ATOM    106  CG  TYR A   5      -6.311   2.168  10.715  1.00  0.00    -0.056 A 
ATOM    107  CD1 TYR A   5      -6.273   3.441  10.098  1.00  0.00     0.010 A 
ATOM    108  CE1 TYR A   5      -6.117   4.604  10.890  1.00  0.00     0.037 A 
ATOM    109  CZ  TYR A   5      -5.989   4.492  12.287  1.00  0.00     0.065 A 
ATOM    110  CE2 TYR A   5      -5.996   3.221  12.900  1.00  0.00     0.037 A 
ATOM    111  CD2 TYR A   5      -6.165   2.063  12.117  1.00  0.00     0.010 A 
BRANCH 109 112
ATOM    112  OH  TYR A   5      -5.867   5.604  13.048  1.00  0.00    -0.361 OA
ATOM    113  HH  TYR A   5      -5.820   6.376  12.480  1.00  0.00     0.217 HD
ENDBRANCH 109 112
ENDBRANCH 105 106
ENDBRANCH  60 105
ENDBRANCH   1  60
TORSDOF 38
ENDMDL
MODEL 8
REMARK VINA RESULT:      -6.3      3.132      6.852
REMARK WARNING: 32 MAX_TORS EXCEEDED!!!
REMARK  38 active torsions:
REMARK  status: ('A' for Active; 'I' for Inactive)
REMARK    1  A    between atoms: N_1  and  CA_2 
REMARK    2  A    between atoms: CA_2  and  CB_5 
REMARK    3  A    between atoms: CA_2  and  C_3 
REMARK       I    between atoms: C_3  and  N_17 
REMARK    4  A    between atoms: CB_5  and  CG_6 
REMARK    5  A    between atoms: CZ_10  and  OH_11 
REMARK    6  A    between atoms: N_17  and  CA_18 
REMARK    7  A    between atoms: CA_18  and  CB_21 
REMARK    8  A    between atoms: CA_18  and  C_19 
REMARK       I    between atoms: C_19  and  N_26 
REMARK    9  A    between atoms: CB_21  and  CG_22 
REMARK   10  A    between atoms: CA_27  and  C_28 
REMARK       I    between atoms: C_28  and  N_33 
REMARK   11  A    between atoms: N_33  and  CA_34 
REMARK   12  A    between atoms: CA_34  and  C_35 
REMARK   13  A    between atoms: CA_34  and  CB_37 
REMARK       I    between atoms: C_35  and  N_43 
REMARK   14  A    between atoms: CB_37  and  CG_38 
REMARK   15  A    between atoms: CG_38  and  CD_39 
REMARK   16  A    between atoms: N_43  and  CA_44 
REMARK   17  A    between atoms: CA_44  and  CB_47 
REMARK   18  A    between atoms: CA_44  and  C_45 
REMARK       I    between atoms: C_45  and  N_57 
REMARK   19  A    between atoms: CB_47  and  CG_48 
REMARK   20  A    between atoms: CZ_52  and  OH_53 
REMARK   21  A    between atoms: N_57  and  CA_58 
REMARK   22  A    between atoms: CA_58  and  CB_61 
REMARK   23  A    between atoms: CA_58  and  C_59 
REMARK       I    between atoms: C_59  and  N_74 
REMARK   24  A    between atoms: CB_61  and  CG_62 
REMARK   25  A    between atoms: CG_62  and  CD_63 
REMARK   26  A    between atoms: CD_63  and  NE_64 
REMARK       I    between atoms: NE_64  and  CZ_65 
REMARK       I    between atoms: CZ_65  and  NH2_66 
REMARK   27  A    between atoms: N_74  and  CA_75 
REMARK   28  A    between atoms: CA_75  and  CB_78 
REMARK   29  A    between atoms: CA_75  and  C_76 
REMARK       I    between atoms: C_76  and  N_85 
REMARK   30  A    between atoms: CB_78  and  CG_79 
REMARK       I    between atoms: CG_79  and  ND2_80 
REMARK   31  A    between atoms: N_85  and  CA_86 
REMARK   32  A    between atoms: CA_86  and  CB_89 
REMARK   33  A    between atoms: CA_86  and  C_87 
REMARK       I    between atoms: C_87  and  N_97 
REMARK   34  A    between atoms: CB_89  and  CG_90 
REMARK   35  A    between atoms: N_97  and  CA_98 
REMARK   36  A    between atoms: CA_98  and  C_99 
REMARK   37  A    between atoms: CA_98  and  CB_102 
REMARK   38  A    between atoms: CB_102  and  CG_103 
ROOT
ATOM      1  C   TYR A   5      -2.344 -12.994   9.237  1.00  0.00     0.241 C 
ATOM      2  O   TYR A   5      -1.562 -12.068   9.438  1.00  0.00    -0.271 OA
ATOM      3  N   ARG A   6      -1.927 -14.272   9.235  1.00  0.00    -0.346 N 
ATOM      4  H   ARG A   6      -2.627 -14.993   9.079  1.00  0.00     0.163 HD
ENDROOT
BRANCH   3   5
ATOM      5  CA  ARG A   6      -0.532 -14.685   9.507  1.00  0.00     0.176 C 
BRANCH   5   6
ATOM      6  CB  ARG A   6      -0.492 -15.458  10.841  1.00  0.00     0.036 C 
BRANCH   6   7
ATOM      7  CG  ARG A   6      -1.468 -14.896  11.900  1.00  0.00     0.023 C 
BRANCH   7   8
ATOM      8  CD  ARG A   6      -0.803 -13.930  12.893  1.00  0.00     0.138 C 
BRANCH   8   9
ATOM      9  NE  ARG A   6      -1.085 -12.515  12.565  1.00  0.00    -0.227 N 
ATOM     10  HE  ARG A   6      -1.991 -12.178  12.837  1.00  0.00     0.177 HD
ATOM     11  CZ  ARG A   6      -0.253 -11.618  12.059  1.00  0.00     0.665 C 
ATOM     12  NH2 ARG A   6      -0.635 -10.384  11.955  1.00  0.00    -0.235 N 
ATOM     13  NH1 ARG A   6       0.956 -11.895  11.662  1.00  0.00    -0.235 N 
ATOM     14 1HH2 ARG A   6      -1.423 -10.096  12.504  1.00  0.00     0.174 HD
ATOM     15 2HH2 ARG A   6       0.090  -9.689  11.881  1.00  0.00     0.174 HD
ATOM     16 1HH1 ARG A   6       1.360 -12.777  11.926  1.00  0.00     0.174 HD
ATOM     17 2HH1 ARG A   6       1.558 -11.160  11.340  1.00  0.00     0.174 HD
ENDBRANCH   8   9
ENDBRANCH   7   8
ENDBRANCH   6   7
ENDBRANCH   5   6
BRANCH   5  18
ATOM     18  C   ARG A   6       0.114 -15.502   8.365  1.00  0.00     0.241 C 
ATOM     19  N   ASN A   7       1.074 -16.393   8.649  1.00  0.00    -0.346 N 
ATOM     20  H   ASN A   7       1.280 -16.591   9.620  1.00  0.00     0.163 HD
ATOM     21  O   ARG A   6      -0.178 -15.228   7.209  1.00  0.00    -0.271 OA
BRANCH  19  22
ATOM     22  CA  ASN A   7       1.657 -17.270   7.614  1.00  0.00     0.185 C 
BRANCH  22  23
ATOM     23  CB  ASN A   7       3.081 -17.713   8.001  1.00  0.00     0.137 C 
BRANCH  23  24
ATOM     24  CG  ASN A   7       4.217 -17.361   7.062  1.00  0.00     0.217 C 
ATOM     25  ND2 ASN A   7       4.349 -18.160   6.025  1.00  0.00    -0.370 N 
ATOM     26 2HD2 ASN A   7       3.860 -19.052   6.013  1.00  0.00     0.159 HD
ATOM     27 1HD2 ASN A   7       5.038 -17.926   5.342  1.00  0.00     0.159 HD
ATOM     28  OD1 ASN A   7       4.814 -16.288   7.087  1.00  0.00    -0.274 OA
ENDBRANCH  23  24
ENDBRANCH  22  23
BRANCH  22  29
ATOM     29  C   ASN A   7       0.815 -18.535   7.333  1.00  0.00     0.241 C 
ATOM     30  N   PHE A   8       1.258 -19.386   6.396  1.00  0.00    -0.346 N 
ATOM     31  H   PHE A   8       2.092 -19.133   5.876  1.00  0.00     0.163 HD
ATOM     32  O   ASN A   7      -0.286 -18.654   7.869  1.00  0.00    -0.271 OA
BRANCH  30  33
ATOM     33  CA  PHE A   8       0.626 -20.677   6.085  1.00  0.00     0.180 C 
BRANCH  33  34
ATOM     34  CB  PHE A   8       0.590 -21.500   7.390  1.00  0.00     0.073 C 
BRANCH  34  35
ATOM     35  CG  PHE A   8       1.720 -22.505   7.536  1.00  0.00    -0.056 A 
ATOM     36  CD1 PHE A   8       1.949 -23.464   6.530  1.00  0.00     0.007 A 
ATOM     37  CE1 PHE A   8       2.907 -24.475   6.728  1.00  0.00     0.001 A 
ATOM     38  CZ  PHE A   8       3.638 -24.528   7.927  1.00  0.00     0.000 A 
ATOM     39  CE2 PHE A   8       3.434 -23.551   8.918  1.00  0.00     0.001 A 
ATOM     40  CD2 PHE A   8       2.481 -22.537   8.720  1.00  0.00     0.007 A 
ENDBRANCH  34  35
ENDBRANCH  33  34
BRANCH  33  41
ATOM     41  C   PHE A   8      -0.774 -20.527   5.440  1.00  0.00     0.241 C 
ATOM     42  N   TRP A   9      -1.728 -21.378   5.853  1.00  0.00    -0.344 N 
ATOM     43  H   TRP A   9      -1.472 -22.044   6.565  1.00  0.00     0.163 HD
ATOM     44  O   PHE A   8      -0.949 -19.687   4.555  1.00  0.00    -0.271 OA
BRANCH  42  45
ATOM     45  CA  TRP A   9      -3.104 -21.483   5.338  1.00  0.00     0.190 C 
BRANCH  45  46
ATOM     46  C   TRP A   9      -4.188 -20.846   6.235  1.00  0.00     0.197 C 
ATOM     47  OXT TRP A   9      -3.937 -19.710   6.712  1.00  0.00    -0.646 OA
ATOM     48  O   TRP A   9      -5.032 -21.628   6.721  1.00  0.00    -0.646 OA
ENDBRANCH  45  46
BRANCH  45  49
ATOM     49  CB  TRP A   9      -3.391 -22.974   5.099  1.00  0.00     0.077 C 
BRANCH  49  50
ATOM     50  CG  TRP A   9      -2.639 -23.562   3.949  1.00  0.00    -0.028 A 
ATOM     51  CD1 TRP A   9      -2.701 -23.084   2.690  1.00  0.00     0.096 A 
ATOM     52  NE1 TRP A   9      -1.776 -23.728   1.896  1.00  0.00    -0.365 N 
ATOM     53  HE1 TRP A   9      -1.526 -23.386   0.984  1.00  0.00     0.165 HD
ATOM     54  CE2 TRP A   9      -1.022 -24.616   2.630  1.00  0.00     0.042 A 
ATOM     55  CD2 TRP A   9      -1.551 -24.535   3.953  1.00  0.00    -0.002 A 
ATOM     56  CZ2 TRP A   9       0.081 -25.417   2.304  1.00  0.00     0.030 A 
ATOM     57  CE3 TRP A   9      -0.902 -25.301   4.948  1.00  0.00     0.014 A 
ATOM     58  CZ3 TRP A   9       0.219 -26.095   4.636  1.00  0.00     0.001 A 
ATOM     59  CH2 TRP A   9       0.710 -26.157   3.319  1.00  0.00     0.002 A 
ENDBRANCH  49  50
ENDBRANCH  45  49
ENDBRANCH  42  45
ENDBRANCH  33  41
ENDBRANCH  30  33
ENDBRANCH  22  29
ENDBRANCH  19  22
ENDBRANCH   5  18
ENDBRANCH   3   5
BRANCH   1  60
ATOM     60  CA  TYR A   5      -3.748 -12.672   8.696  1.00  0.00     0.180 C 
BRANCH  60  61
ATOM     61  N   TYR A   5      -4.739 -13.680   9.091  1.00  0.00    -0.346 N 
ATOM     62  H   TYR A   5      -4.983 -13.756  10.068  1.00  0.00     0.163 HD
ATOM     63  C   GLU A   4      -5.249 -14.571   8.225  1.00  0.00     0.241 C 
ATOM     64  O   GLU A   4      -4.838 -14.636   7.070  1.00  0.00    -0.271 OA
BRANCH  63  65
ATOM     65  CA  GLU A   4      -6.110 -15.706   8.799  1.00  0.00     0.177 C 
BRANCH  65  66
ATOM     66  N   GLU A   4      -7.546 -15.413   8.653  1.00  0.00    -0.346 N 
ATOM     67  H   GLU A   4      -7.920 -15.427   7.712  1.00  0.00     0.163 HD
ATOM     68  C   PRO A   3      -8.316 -14.859   9.595  1.00  0.00     0.241 C 
ATOM     69  O   PRO A   3      -7.908 -14.590  10.712  1.00  0.00    -0.271 OA
BRANCH  68  70
ATOM     70  CA  PRO A   3      -9.787 -14.575   9.260  1.00  0.00     0.179 C 
ATOM     71  N   PRO A   3     -10.121 -14.435   7.826  1.00  0.00    -0.337 N 
ATOM     72  CD  PRO A   3     -11.230 -15.331   7.510  1.00  0.00     0.127 C 
ATOM     73  C   ASP A   2      -9.623 -13.440   7.045  1.00  0.00     0.243 C 
ATOM     74  CG  PRO A   3     -11.883 -15.660   8.852  1.00  0.00     0.022 C 
ATOM     75  CB  PRO A   3     -10.683 -15.704   9.792  1.00  0.00     0.037 C 
ATOM     76  O   ASP A   2      -8.699 -12.756   7.493  1.00  0.00    -0.271 OA
BRANCH  73  77
ATOM     77  CA  ASP A   2      -9.820 -13.427   5.488  1.00  0.00     0.186 C 
BRANCH  77  78
ATOM     78  CB  ASP A   2      -8.522 -13.340   4.669  1.00  0.00     0.147 C 
BRANCH  78  79
ATOM     79  CG  ASP A   2      -8.566 -14.263   3.464  1.00  0.00     0.175 C 
ATOM     80  OD2 ASP A   2      -7.681 -15.152   3.454  1.00  0.00    -0.648 OA
ATOM     81  OD1 ASP A   2      -9.619 -14.264   2.816  1.00  0.00    -0.648 OA
ENDBRANCH  78  79
ENDBRANCH  77  78
BRANCH  77  82
ATOM     82  N   ASP A   2     -10.765 -12.428   4.928  1.00  0.00    -0.345 N 
ATOM     83  H   ASP A   2     -11.679 -12.804   4.727  1.00  0.00     0.163 HD
ATOM     84  C   TYR A   1     -10.607 -11.099   5.052  1.00  0.00     0.249 C 
ATOM     85  O   TYR A   1      -9.564 -10.606   5.412  1.00  0.00    -0.271 OA
BRANCH  84  86
ATOM     86  CA  TYR A   1     -11.586 -10.136   4.414  1.00  0.00     0.278 C 
BRANCH  86  87
ATOM     87  N   TYR A   1     -12.893 -10.772   4.180  1.00  0.00    -0.066 N 
ATOM     88  H2  TYR A   1     -13.401 -10.859   5.049  1.00  0.00     0.275 HD
ATOM     89  H1  TYR A   1     -12.746 -11.689   3.781  1.00  0.00     0.275 HD
ATOM     90  H3  TYR A   1     -13.431 -10.206   3.533  1.00  0.00     0.275 HD
ENDBRANCH  86  87
BRANCH  86  91
ATOM     91  CB  TYR A   1     -11.694  -8.774   5.099  1.00  0.00     0.081 C 
BRANCH  91  92
ATOM     92  CG  TYR A   1     -11.174  -7.649   4.221  1.00  0.00    -0.056 A 
ATOM     93  CD2 TYR A   1     -12.011  -6.543   3.947  1.00  0.00     0.010 A 
ATOM     94  CE2 TYR A   1     -11.556  -5.507   3.112  1.00  0.00     0.037 A 
ATOM     95  CZ  TYR A   1     -10.258  -5.565   2.558  1.00  0.00     0.065 A 
ATOM     96  CE1 TYR A   1      -9.411  -6.648   2.860  1.00  0.00     0.037 A 
ATOM     97  CD1 TYR A   1      -9.862  -7.695   3.695  1.00  0.00     0.010 A 
BRANCH  95  98
ATOM     98  OH  TYR A   1      -9.819  -4.581   1.740  1.00  0.00    -0.361 OA
ATOM     99  HH  TYR A   1     -10.483  -3.903   1.611  1.00  0.00     0.217 HD
ENDBRANCH  95  98
ENDBRANCH  91  92
ENDBRANCH  86  91
ENDBRANCH  84  86
ENDBRANCH  77  82
ENDBRANCH  73  77
ENDBRANCH  68  70
ENDBRANCH  65  66
BRANCH  65 100
ATOM    100  CB  GLU A   4      -5.795 -17.047   8.102  1.00  0.00     0.045 C 
BRANCH 100 101
ATOM    101  CG  GLU A   4      -7.001 -17.974   7.872  1.00  0.00     0.116 C 
BRANCH 101 102
ATOM    102  CD  GLU A   4      -7.504 -17.904   6.421  1.00  0.00     0.172 C 
ATOM    103  OE2 GLU A   4      -6.853 -18.565   5.582  1.00  0.00    -0.648 OA
ATOM    104  OE1 GLU A   4      -8.272 -16.952   6.130  1.00  0.00    -0.648 OA
ENDBRANCH 101 102
ENDBRANCH 100 101
ENDBRANCH  65 100
ENDBRANCH  63  65
ENDBRANCH  60  61
BRANCH  60 105
ATOM    105  CB  TYR A   5      -4.212 -11.264   9.115  1.00  0.00     0.073 C 
BRANCH 105 106
ATOM    106  CG  TYR A   5      -4.853 -10.411   8.024  1.00  0.00    -0.056 A 
ATOM    107  CD1 TYR A   5      -4.901  -9.002   8.146  1.00  0.00     0.010 A 
ATOM    108  CE1 TYR A   5      -5.354  -8.215   7.058  1.00  0.00     0.037 A 
ATOM    109  CZ  TYR A   5      -5.765  -8.836   5.864  1.00  0.00     0.065 A 
ATOM    110  CE2 TYR A   5      -5.745 -10.243   5.753  1.00  0.00     0.037 A 
ATOM    111  CD2 TYR A   5      -5.283 -11.027   6.827  1.00  0.00     0.010 A 
BRANCH 109 112
ATOM    112  OH  TYR A   5      -6.171  -8.085   4.815  1.00  0.00    -0.361 OA
ATOM    113  HH  TYR A   5      -5.818  -7.197   4.902  1.00  0.00     0.217 HD
ENDBRANCH 109 112
ENDBRANCH 105 106
ENDBRANCH  60 105
ENDBRANCH   1  60
TORSDOF 38
ENDMDL
MODEL 9
REMARK VINA RESULT:      -6.3     15.914     23.155
REMARK WARNING: 32 MAX_TORS EXCEEDED!!!
REMARK  38 active torsions:
REMARK  status: ('A' for Active; 'I' for Inactive)
REMARK    1  A    between atoms: N_1  and  CA_2 
REMARK    2  A    between atoms: CA_2  and  CB_5 
REMARK    3  A    between atoms: CA_2  and  C_3 
REMARK       I    between atoms: C_3  and  N_17 
REMARK    4  A    between atoms: CB_5  and  CG_6 
REMARK    5  A    between atoms: CZ_10  and  OH_11 
REMARK    6  A    between atoms: N_17  and  CA_18 
REMARK    7  A    between atoms: CA_18  and  CB_21 
REMARK    8  A    between atoms: CA_18  and  C_19 
REMARK       I    between atoms: C_19  and  N_26 
REMARK    9  A    between atoms: CB_21  and  CG_22 
REMARK   10  A    between atoms: CA_27  and  C_28 
REMARK       I    between atoms: C_28  and  N_33 
REMARK   11  A    between atoms: N_33  and  CA_34 
REMARK   12  A    between atoms: CA_34  and  C_35 
REMARK   13  A    between atoms: CA_34  and  CB_37 
REMARK       I    between atoms: C_35  and  N_43 
REMARK   14  A    between atoms: CB_37  and  CG_38 
REMARK   15  A    between atoms: CG_38  and  CD_39 
REMARK   16  A    between atoms: N_43  and  CA_44 
REMARK   17  A    between atoms: CA_44  and  CB_47 
REMARK   18  A    between atoms: CA_44  and  C_45 
REMARK       I    between atoms: C_45  and  N_57 
REMARK   19  A    between atoms: CB_47  and  CG_48 
REMARK   20  A    between atoms: CZ_52  and  OH_53 
REMARK   21  A    between atoms: N_57  and  CA_58 
REMARK   22  A    between atoms: CA_58  and  CB_61 
REMARK   23  A    between atoms: CA_58  and  C_59 
REMARK       I    between atoms: C_59  and  N_74 
REMARK   24  A    between atoms: CB_61  and  CG_62 
REMARK   25  A    between atoms: CG_62  and  CD_63 
REMARK   26  A    between atoms: CD_63  and  NE_64 
REMARK       I    between atoms: NE_64  and  CZ_65 
REMARK       I    between atoms: CZ_65  and  NH2_66 
REMARK   27  A    between atoms: N_74  and  CA_75 
REMARK   28  A    between atoms: CA_75  and  CB_78 
REMARK   29  A    between atoms: CA_75  and  C_76 
REMARK       I    between atoms: C_76  and  N_85 
REMARK   30  A    between atoms: CB_78  and  CG_79 
REMARK       I    between atoms: CG_79  and  ND2_80 
REMARK   31  A    between atoms: N_85  and  CA_86 
REMARK   32  A    between atoms: CA_86  and  CB_89 
REMARK   33  A    between atoms: CA_86  and  C_87 
REMARK       I    between atoms: C_87  and  N_97 
REMARK   34  A    between atoms: CB_89  and  CG_90 
REMARK   35  A    between atoms: N_97  and  CA_98 
REMARK   36  A    between atoms: CA_98  and  C_99 
REMARK   37  A    between atoms: CA_98  and  CB_102 
REMARK   38  A    between atoms: CB_102  and  CG_103 
ROOT
ATOM      1  C   TYR A   5      -5.402   0.197   7.407  1.00  0.00     0.241 C 
ATOM      2  O   TYR A   5      -4.992  -0.706   6.682  1.00  0.00    -0.271 OA
ATOM      3  N   ARG A   6      -5.742   1.397   6.905  1.00  0.00    -0.346 N 
ATOM      4  H   ARG A   6      -6.090   2.095   7.556  1.00  0.00     0.163 HD
ENDROOT
BRANCH   3   5
ATOM      5  CA  ARG A   6      -5.696   1.730   5.463  1.00  0.00     0.176 C 
BRANCH   5   6
ATOM      6  CB  ARG A   6      -7.138   1.935   4.953  1.00  0.00     0.036 C 
BRANCH   6   7
ATOM      7  CG  ARG A   6      -8.138   2.282   6.080  1.00  0.00     0.023 C 
BRANCH   7   8
ATOM      8  CD  ARG A   6      -8.785   3.667   5.919  1.00  0.00     0.138 C 
BRANCH   8   9
ATOM      9  NE  ARG A   6     -10.253   3.579   5.759  1.00  0.00    -0.227 N 
ATOM     10  HE  ARG A   6     -10.578   2.930   5.065  1.00  0.00     0.177 HD
ATOM     11  CZ  ARG A   6     -11.186   4.168   6.492  1.00  0.00     0.665 C 
ATOM     12  NH2 ARG A   6     -12.433   3.876   6.289  1.00  0.00    -0.235 N 
ATOM     13  NH1 ARG A   6     -10.930   5.031   7.433  1.00  0.00    -0.235 N 
ATOM     14 1HH2 ARG A   6     -12.634   3.029   5.792  1.00  0.00     0.174 HD
ATOM     15 2HH2 ARG A   6     -13.073   4.072   7.041  1.00  0.00     0.174 HD
ATOM     16 1HH1 ARG A   6      -9.985   5.117   7.764  1.00  0.00     0.174 HD
ATOM     17 2HH1 ARG A   6     -11.678   5.400   7.991  1.00  0.00     0.174 HD
ENDBRANCH   8   9
ENDBRANCH   7   8
ENDBRANCH   6   7
ENDBRANCH   5   6
BRANCH   5  18
ATOM     18  C   ARG A   6      -4.805   2.947   5.129  1.00  0.00     0.241 C 
ATOM     19  N   ASN A   7      -5.231   4.183   5.424  1.00  0.00    -0.346 N 
ATOM     20  H   ASN A   7      -6.083   4.286   5.960  1.00  0.00     0.163 HD
ATOM     21  O   ARG A   6      -3.779   2.764   4.487  1.00  0.00    -0.271 OA
BRANCH  19  22
ATOM     22  CA  ASN A   7      -4.382   5.373   5.218  1.00  0.00     0.185 C 
BRANCH  22  23
ATOM     23  CB  ASN A   7      -5.069   6.389   4.285  1.00  0.00     0.137 C 
BRANCH  23  24
ATOM     24  CG  ASN A   7      -4.190   7.282   3.433  1.00  0.00     0.217 C 
ATOM     25  ND2 ASN A   7      -3.735   8.357   4.039  1.00  0.00    -0.370 N 
ATOM     26 2HD2 ASN A   7      -4.144   8.644   4.926  1.00  0.00     0.159 HD
ATOM     27 1HD2 ASN A   7      -3.095   8.937   3.541  1.00  0.00     0.159 HD
ATOM     28  OD1 ASN A   7      -3.708   6.937   2.357  1.00  0.00    -0.274 OA
ENDBRANCH  23  24
ENDBRANCH  22  23
BRANCH  22  29
ATOM     29  C   ASN A   7      -4.007   6.096   6.531  1.00  0.00     0.241 C 
ATOM     30  N   PHE A   8      -2.708   6.343   6.760  1.00  0.00    -0.346 N 
ATOM     31  H   PHE A   8      -2.030   5.993   6.091  1.00  0.00     0.163 HD
ATOM     32  O   ASN A   7      -4.879   6.300   7.374  1.00  0.00    -0.271 OA
BRANCH  30  33
ATOM     33  CA  PHE A   8      -2.201   7.108   7.909  1.00  0.00     0.180 C 
BRANCH  33  34
ATOM     34  CB  PHE A   8      -1.097   6.260   8.577  1.00  0.00     0.073 C 
BRANCH  34  35
ATOM     35  CG  PHE A   8      -1.398   5.843  10.007  1.00  0.00    -0.056 A 
ATOM     36  CD1 PHE A   8      -0.350   5.475  10.872  1.00  0.00     0.007 A 
ATOM     37  CE1 PHE A   8      -0.639   4.963  12.150  1.00  0.00     0.001 A 
ATOM     38  CZ  PHE A   8      -1.975   4.821  12.565  1.00  0.00     0.000 A 
ATOM     39  CE2 PHE A   8      -3.021   5.219  11.715  1.00  0.00     0.001 A 
ATOM     40  CD2 PHE A   8      -2.733   5.736  10.440  1.00  0.00     0.007 A 
ENDBRANCH  34  35
ENDBRANCH  33  34
BRANCH  33  41
ATOM     41  C   PHE A   8      -1.708   8.525   7.525  1.00  0.00     0.241 C 
ATOM     42  N   TRP A   9      -0.430   8.822   7.807  1.00  0.00    -0.344 N 
ATOM     43  H   TRP A   9       0.127   8.098   8.235  1.00  0.00     0.163 HD
ATOM     44  O   PHE A   8      -2.500   9.330   7.031  1.00  0.00    -0.271 OA
BRANCH  42  45
ATOM     45  CA  TRP A   9       0.244  10.117   7.610  1.00  0.00     0.190 C 
BRANCH  45  46
ATOM     46  C   TRP A   9       1.702  10.026   7.112  1.00  0.00     0.197 C 
ATOM     47  OXT TRP A   9       2.518  10.862   7.581  1.00  0.00    -0.646 OA
ATOM     48  O   TRP A   9       1.882   9.415   6.037  1.00  0.00    -0.646 OA
ENDBRANCH  45  46
BRANCH  45  49
ATOM     49  CB  TRP A   9       0.161  10.883   8.940  1.00  0.00     0.077 C 
BRANCH  49  50
ATOM     50  CG  TRP A   9       0.351  10.026  10.149  1.00  0.00    -0.028 A 
ATOM     51  CD1 TRP A   9       1.548   9.797  10.726  1.00  0.00     0.096 A 
ATOM     52  NE1 TRP A   9       1.378   9.109  11.908  1.00  0.00    -0.365 N 
ATOM     53  HE1 TRP A   9       2.118   9.016  12.582  1.00  0.00     0.165 HD
ATOM     54  CE2 TRP A   9       0.042   8.917  12.184  1.00  0.00     0.042 A 
ATOM     55  CD2 TRP A   9      -0.644   9.492  11.074  1.00  0.00    -0.002 A 
ATOM     56  CZ2 TRP A   9      -0.627   8.372  13.288  1.00  0.00     0.030 A 
ATOM     57  CE3 TRP A   9      -2.056   9.502  11.132  1.00  0.00     0.014 A 
ATOM     58  CZ3 TRP A   9      -2.741   8.974  12.245  1.00  0.00     0.001 A 
ATOM     59  CH2 TRP A   9      -2.031   8.408  13.320  1.00  0.00     0.002 A 
ENDBRANCH  49  50
ENDBRANCH  45  49
ENDBRANCH  42  45
ENDBRANCH  33  41
ENDBRANCH  30  33
ENDBRANCH  22  29
ENDBRANCH  19  22
ENDBRANCH   5  18
ENDBRANCH   3   5
BRANCH   1  60
ATOM     60  CA  TYR A   5      -5.248   0.049   8.931  1.00  0.00     0.180 C 
BRANCH  60  61
ATOM     61  N   TYR A   5      -4.002   0.646   9.424  1.00  0.00    -0.346 N 
ATOM     62  H   TYR A   5      -3.615   1.433   8.922  1.00  0.00     0.163 HD
ATOM     63  C   GLU A   4      -3.303   0.123  10.445  1.00  0.00     0.241 C 
ATOM     64  O   GLU A   4      -3.638  -0.940  10.960  1.00  0.00    -0.271 OA
BRANCH  63  65
ATOM     65  CA  GLU A   4      -1.913   0.709  10.727  1.00  0.00     0.177 C 
BRANCH  65  66
ATOM     66  N   GLU A   4      -0.849  -0.168  10.208  1.00  0.00    -0.346 N 
ATOM     67  H   GLU A   4      -0.866  -0.365   9.215  1.00  0.00     0.163 HD
ATOM     68  C   PRO A   3      -0.056  -0.941  10.958  1.00  0.00     0.241 C 
ATOM     69  O   PRO A   3      -0.100  -0.951  12.176  1.00  0.00    -0.271 OA
BRANCH  68  70
ATOM     70  CA  PRO A   3       0.972  -1.835  10.250  1.00  0.00     0.179 C 
ATOM     71  N   PRO A   3       2.366  -1.344  10.225  1.00  0.00    -0.337 N 
ATOM     72  CD  PRO A   3       3.245  -2.394  10.733  1.00  0.00     0.127 C 
ATOM     73  C   ASP A   2       2.736  -0.202   9.586  1.00  0.00     0.243 C 
ATOM     74  CG  PRO A   3       2.443  -3.689  10.616  1.00  0.00     0.022 C 
ATOM     75  CB  PRO A   3       1.024  -3.217  10.917  1.00  0.00     0.037 C 
ATOM     76  O   ASP A   2       1.848   0.558   9.193  1.00  0.00    -0.271 OA
BRANCH  73  77
ATOM     77  CA  ASP A   2       4.172   0.410   9.744  1.00  0.00     0.186 C 
BRANCH  77  78
ATOM     78  CB  ASP A   2       4.512   0.915  11.156  1.00  0.00     0.147 C 
BRANCH  78  79
ATOM     79  CG  ASP A   2       4.430   2.430  11.236  1.00  0.00     0.175 C 
ATOM     80  OD2 ASP A   2       3.264   2.887  11.303  1.00  0.00    -0.648 OA
ATOM     81  OD1 ASP A   2       5.472   3.016  11.554  1.00  0.00    -0.648 OA
ENDBRANCH  78  79
ENDBRANCH  77  78
BRANCH  77  82
ATOM     82  N   ASP A   2       4.570   1.474   8.786  1.00  0.00    -0.345 N 
ATOM     83  H   ASP A   2       4.061   2.337   8.908  1.00  0.00     0.163 HD
ATOM     84  C   TYR A   1       5.733   1.479   8.115  1.00  0.00     0.249 C 
ATOM     85  O   TYR A   1       6.440   0.501   8.046  1.00  0.00    -0.271 OA
BRANCH  84  86
ATOM     86  CA  TYR A   1       6.053   2.573   7.118  1.00  0.00     0.278 C 
BRANCH  86  87
ATOM     87  N   TYR A   1       6.725   2.034   5.924  1.00  0.00    -0.066 N 
ATOM     88  H2  TYR A   1       6.051   1.856   5.193  1.00  0.00     0.275 HD
ATOM     89  H1  TYR A   1       7.192   1.172   6.169  1.00  0.00     0.275 HD
ATOM     90  H3  TYR A   1       7.410   2.705   5.593  1.00  0.00     0.275 HD
ENDBRANCH  86  87
BRANCH  86  91
ATOM     91  CB  TYR A   1       4.888   3.504   6.783  1.00  0.00     0.081 C 
BRANCH  91  92
ATOM     92  CG  TYR A   1       4.596   4.481   7.908  1.00  0.00    -0.056 A 
ATOM     93  CD2 TYR A   1       3.253   4.791   8.223  1.00  0.00     0.010 A 
ATOM     94  CE2 TYR A   1       2.965   5.716   9.243  1.00  0.00     0.037 A 
ATOM     95  CZ  TYR A   1       4.018   6.326   9.961  1.00  0.00     0.065 A 
ATOM     96  CE1 TYR A   1       5.355   5.990   9.673  1.00  0.00     0.037 A 
ATOM     97  CD1 TYR A   1       5.652   5.064   8.647  1.00  0.00     0.010 A 
BRANCH  95  98
ATOM     98  OH  TYR A   1       3.751   7.229  10.932  1.00  0.00    -0.361 OA
ATOM     99  HH  TYR A   1       4.448   7.881  11.013  1.00  0.00     0.217 HD
ENDBRANCH  95  98
ENDBRANCH  91  92
ENDBRANCH  86  91
ENDBRANCH  84  86
ENDBRANCH  77  82
ENDBRANCH  73  77
ENDBRANCH  68  70
ENDBRANCH  65  66
BRANCH  65 100
ATOM    100  CB  GLU A   4      -1.763   2.111  10.097  1.00  0.00     0.045 C 
BRANCH 100 101
ATOM    101  CG  GLU A   4      -0.873   2.184   8.845  1.00  0.00     0.116 C 
BRANCH 101 102
ATOM    102  CD  GLU A   4      -1.708   2.301   7.559  1.00  0.00     0.172 C 
ATOM    103  OE2 GLU A   4      -2.053   1.221   7.029  1.00  0.00    -0.648 OA
ATOM    104  OE1 GLU A   4      -1.681   3.406   6.961  1.00  0.00    -0.648 OA
ENDBRANCH 101 102
ENDBRANCH 100 101
ENDBRANCH  65 100
ENDBRANCH  63  65
ENDBRANCH  60  61
BRANCH  60 105
ATOM    105  CB  TYR A   5      -6.460   0.629   9.685  1.00  0.00     0.073 C 
BRANCH 105 106
ATOM    106  CG  TYR A   5      -7.724  -0.224   9.691  1.00  0.00    -0.056 A 
ATOM    107  CD1 TYR A   5      -7.752  -1.470  10.363  1.00  0.00     0.010 A 
ATOM    108  CE1 TYR A   5      -8.974  -2.174  10.494  1.00  0.00     0.037 A 
ATOM    109  CZ  TYR A   5     -10.155  -1.641   9.946  1.00  0.00     0.065 A 
ATOM    110  CE2 TYR A   5     -10.123  -0.414   9.249  1.00  0.00     0.037 A 
ATOM    111  CD2 TYR A   5      -8.913   0.296   9.129  1.00  0.00     0.010 A 
BRANCH 109 112
ATOM    112  OH  TYR A   5     -11.328  -2.299  10.094  1.00  0.00    -0.361 OA
ATOM    113  HH  TYR A   5     -11.458  -2.890   9.349  1.00  0.00     0.217 HD
ENDBRANCH 109 112
ENDBRANCH 105 106
ENDBRANCH  60 105
ENDBRANCH   1  60
TORSDOF 38
ENDMDL
