MODEL 1
REMARK VINA RESULT:      -5.7      0.000      0.000
REMARK WARNING: 32 MAX_TORS EXCEEDED!!!
REMARK  38 active torsions:
REMARK  status: ('A' for Active; 'I' for Inactive)
REMARK    1  A    between atoms: N_1  and  CA_2 
REMARK    2  A    between atoms: CA_2  and  CB_5 
REMARK    3  A    between atoms: CA_2  and  C_3 
REMARK       I    between atoms: C_3  and  N_17 
REMARK    4  A    between atoms: CB_5  and  CG_6 
REMARK    5  A    between atoms: CZ_10  and  OH_11 
REMARK    6  A    between atoms: N_17  and  CA_18 
REMARK    7  A    between atoms: CA_18  and  CB_21 
REMARK    8  A    between atoms: CA_18  and  C_19 
REMARK       I    between atoms: C_19  and  N_26 
REMARK    9  A    between atoms: CB_21  and  CG_22 
REMARK   10  A    between atoms: CA_27  and  C_28 
REMARK       I    between atoms: C_28  and  N_33 
REMARK   11  A    between atoms: N_33  and  CA_34 
REMARK   12  A    between atoms: CA_34  and  C_35 
REMARK   13  A    between atoms: CA_34  and  CB_37 
REMARK       I    between atoms: C_35  and  N_43 
REMARK   14  A    between atoms: CB_37  and  CG_38 
REMARK   15  A    between atoms: CG_38  and  CD_39 
REMARK   16  A    between atoms: N_43  and  CA_44 
REMARK   17  A    between atoms: CA_44  and  CB_47 
REMARK   18  A    between atoms: CA_44  and  C_45 
REMARK       I    between atoms: C_45  and  N_57 
REMARK   19  A    between atoms: CB_47  and  CG_48 
REMARK   20  A    between atoms: CZ_52  and  OH_53 
REMARK   21  A    between atoms: N_57  and  CA_58 
REMARK   22  A    between atoms: CA_58  and  CB_61 
REMARK   23  A    between atoms: CA_58  and  C_59 
REMARK       I    between atoms: C_59  and  N_74 
REMARK   24  A    between atoms: CB_61  and  CG_62 
REMARK   25  A    between atoms: CG_62  and  CD_63 
REMARK   26  A    between atoms: CD_63  and  NE_64 
REMARK       I    between atoms: NE_64  and  CZ_65 
REMARK       I    between atoms: CZ_65  and  NH2_66 
REMARK   27  A    between atoms: N_74  and  CA_75 
REMARK   28  A    between atoms: CA_75  and  CB_78 
REMARK   29  A    between atoms: CA_75  and  C_76 
REMARK       I    between atoms: C_76  and  N_85 
REMARK   30  A    between atoms: CB_78  and  CG_79 
REMARK       I    between atoms: CG_79  and  ND2_80 
REMARK   31  A    between atoms: N_85  and  CA_86 
REMARK   32  A    between atoms: CA_86  and  CB_89 
REMARK   33  A    between atoms: CA_86  and  C_87 
REMARK       I    between atoms: C_87  and  N_97 
REMARK   34  A    between atoms: CB_89  and  CG_90 
REMARK   35  A    between atoms: N_97  and  CA_98 
REMARK   36  A    between atoms: CA_98  and  C_99 
REMARK   37  A    between atoms: CA_98  and  CB_102 
REMARK   38  A    between atoms: CB_102  and  CG_103 
ROOT
ATOM      1  C   TYR A   5      -6.867 -10.215 -11.422  1.00  0.00     0.241 C 
ATOM      2  O   TYR A   5      -6.574 -11.387 -11.197  1.00  0.00    -0.271 OA
ATOM      3  N   ARG A   6      -6.856  -9.720 -12.672  1.00  0.00    -0.346 N 
ATOM      4  H   ARG A   6      -7.126  -8.747 -12.793  1.00  0.00     0.163 HD
ENDROOT
BRANCH   3   5
ATOM      5  CA  ARG A   6      -6.540 -10.524 -13.874  1.00  0.00     0.176 C 
BRANCH   5   6
ATOM      6  CB  ARG A   6      -5.039 -10.372 -14.195  1.00  0.00     0.036 C 
BRANCH   6   7
ATOM      7  CG  ARG A   6      -4.772  -9.850 -15.626  1.00  0.00     0.023 C 
BRANCH   7   8
ATOM      8  CD  ARG A   6      -4.288 -10.941 -16.595  1.00  0.00     0.138 C 
BRANCH   8   9
ATOM      9  NE  ARG A   6      -3.320 -11.861 -15.957  1.00  0.00    -0.227 N 
ATOM     10  HE  ARG A   6      -3.716 -12.669 -15.512  1.00  0.00     0.177 HD
ATOM     11  CZ  ARG A   6      -1.998 -11.803 -15.997  1.00  0.00     0.665 C 
ATOM     12  NH2 ARG A   6      -1.303 -12.771 -15.485  1.00  0.00    -0.235 N 
ATOM     13  NH1 ARG A   6      -1.332 -10.824 -16.540  1.00  0.00    -0.235 N 
ATOM     14 1HH2 ARG A   6      -1.771 -13.643 -15.330  1.00  0.00     0.174 HD
ATOM     15 2HH2 ARG A   6      -0.354 -12.865 -15.805  1.00  0.00     0.174 HD
ATOM     16 1HH1 ARG A   6      -1.824 -10.177 -17.131  1.00  0.00     0.174 HD
ATOM     17 2HH1 ARG A   6      -0.331 -10.865 -16.588  1.00  0.00     0.174 HD
ENDBRANCH   8   9
ENDBRANCH   7   8
ENDBRANCH   6   7
ENDBRANCH   5   6
BRANCH   5  18
ATOM     18  C   ARG A   6      -6.940 -12.012 -13.757  1.00  0.00     0.241 C 
ATOM     19  N   ASN A   7      -5.995 -12.939 -13.552  1.00  0.00    -0.346 N 
ATOM     20  H   ASN A   7      -5.048 -12.632 -13.369  1.00  0.00     0.163 HD
ATOM     21  O   ARG A   6      -8.103 -12.326 -13.978  1.00  0.00    -0.271 OA
BRANCH  19  22
ATOM     22  CA  ASN A   7      -6.328 -14.361 -13.334  1.00  0.00     0.185 C 
BRANCH  22  23
ATOM     23  CB  ASN A   7      -5.445 -15.276 -14.205  1.00  0.00     0.137 C 
BRANCH  23  24
ATOM     24  CG  ASN A   7      -3.954 -15.009 -14.236  1.00  0.00     0.217 C 
ATOM     25  ND2 ASN A   7      -3.281 -15.712 -15.121  1.00  0.00    -0.370 N 
ATOM     26 2HD2 ASN A   7      -3.722 -16.515 -15.565  1.00  0.00     0.159 HD
ATOM     27 1HD2 ASN A   7      -2.308 -15.519 -15.226  1.00  0.00     0.159 HD
ATOM     28  OD1 ASN A   7      -3.423 -14.046 -13.689  1.00  0.00    -0.274 OA
ENDBRANCH  23  24
ENDBRANCH  22  23
BRANCH  22  29
ATOM     29  C   ASN A   7      -6.187 -14.808 -11.862  1.00  0.00     0.241 C 
ATOM     30  N   PHE A   8      -5.447 -14.043 -11.044  1.00  0.00    -0.346 N 
ATOM     31  H   PHE A   8      -4.969 -13.241 -11.442  1.00  0.00     0.163 HD
ATOM     32  O   ASN A   7      -6.634 -15.902 -11.521  1.00  0.00    -0.271 OA
BRANCH  30  33
ATOM     33  CA  PHE A   8      -5.300 -14.278  -9.600  1.00  0.00     0.180 C 
BRANCH  33  34
ATOM     34  CB  PHE A   8      -6.719 -14.414  -9.007  1.00  0.00     0.073 C 
BRANCH  34  35
ATOM     35  CG  PHE A   8      -6.960 -13.598  -7.749  1.00  0.00    -0.056 A 
ATOM     36  CD1 PHE A   8      -5.885 -13.273  -6.898  1.00  0.00     0.007 A 
ATOM     37  CE1 PHE A   8      -6.129 -12.635  -5.669  1.00  0.00     0.001 A 
ATOM     38  CZ  PHE A   8      -7.445 -12.318  -5.289  1.00  0.00     0.000 A 
ATOM     39  CE2 PHE A   8      -8.516 -12.612  -6.152  1.00  0.00     0.001 A 
ATOM     40  CD2 PHE A   8      -8.272 -13.245  -7.383  1.00  0.00     0.007 A 
ENDBRANCH  34  35
ENDBRANCH  33  34
BRANCH  33  41
ATOM     41  C   PHE A   8      -4.401 -15.496  -9.271  1.00  0.00     0.241 C 
ATOM     42  N   TRP A   9      -4.999 -16.697  -9.225  1.00  0.00    -0.344 N 
ATOM     43  H   TRP A   9      -5.987 -16.727  -9.422  1.00  0.00     0.163 HD
ATOM     44  O   PHE A   8      -3.207 -15.320  -9.021  1.00  0.00    -0.271 OA
BRANCH  42  45
ATOM     45  CA  TRP A   9      -4.378 -17.983  -8.860  1.00  0.00     0.190 C 
BRANCH  45  46
ATOM     46  C   TRP A   9      -4.329 -19.030  -9.995  1.00  0.00     0.197 C 
ATOM     47  OXT TRP A   9      -4.702 -20.197  -9.709  1.00  0.00    -0.646 OA
ATOM     48  O   TRP A   9      -3.589 -18.759 -10.965  1.00  0.00    -0.646 OA
ENDBRANCH  45  46
BRANCH  45  49
ATOM     49  CB  TRP A   9      -5.133 -18.527  -7.638  1.00  0.00     0.077 C 
BRANCH  49  50
ATOM     50  CG  TRP A   9      -6.547 -18.052  -7.536  1.00  0.00    -0.028 A 
ATOM     51  CD1 TRP A   9      -7.558 -18.542  -8.282  1.00  0.00     0.096 A 
ATOM     52  NE1 TRP A   9      -8.759 -18.025  -7.844  1.00  0.00    -0.365 N 
ATOM     53  HE1 TRP A   9      -9.641 -18.410  -8.132  1.00  0.00     0.165 HD
ATOM     54  CE2 TRP A   9      -8.582 -17.219  -6.741  1.00  0.00     0.042 A 
ATOM     55  CD2 TRP A   9      -7.173 -17.214  -6.518  1.00  0.00    -0.002 A 
ATOM     56  CZ2 TRP A   9      -9.484 -16.560  -5.896  1.00  0.00     0.030 A 
ATOM     57  CE3 TRP A   9      -6.709 -16.513  -5.382  1.00  0.00     0.014 A 
ATOM     58  CZ3 TRP A   9      -7.608 -15.862  -4.514  1.00  0.00     0.001 A 
ATOM     59  CH2 TRP A   9      -8.992 -15.882  -4.769  1.00  0.00     0.002 A 
ENDBRANCH  49  50
ENDBRANCH  45  49
ENDBRANCH  42  45
ENDBRANCH  33  41
ENDBRANCH  30  33
ENDBRANCH  22  29
ENDBRANCH  19  22
ENDBRANCH   5  18
ENDBRANCH   3   5
BRANCH   1  60
ATOM     60  CA  TYR A   5      -6.962  -9.235 -10.239  1.00  0.00     0.180 C 
BRANCH  60  61
ATOM     61  N   TYR A   5      -6.905  -7.835 -10.673  1.00  0.00    -0.346 N 
ATOM     62  H   TYR A   5      -7.739  -7.418 -11.061  1.00  0.00     0.163 HD
ATOM     63  C   GLU A   4      -5.765  -7.123 -10.674  1.00  0.00     0.241 C 
ATOM     64  O   GLU A   4      -4.693  -7.649 -10.391  1.00  0.00    -0.271 OA
BRANCH  63  65
ATOM     65  CA  GLU A   4      -5.790  -5.745 -11.349  1.00  0.00     0.177 C 
BRANCH  65  66
ATOM     66  N   GLU A   4      -6.974  -4.970 -10.936  1.00  0.00    -0.346 N 
ATOM     67  H   GLU A   4      -7.095  -4.821  -9.942  1.00  0.00     0.163 HD
ATOM     68  C   PRO A   3      -8.027  -4.703 -11.715  1.00  0.00     0.241 C 
ATOM     69  O   PRO A   3      -8.086  -5.033 -12.888  1.00  0.00    -0.271 OA
BRANCH  68  70
ATOM     70  CA  PRO A   3      -9.202  -3.922 -11.110  1.00  0.00     0.179 C 
ATOM     71  N   PRO A   3      -9.300  -3.919  -9.634  1.00  0.00    -0.337 N 
ATOM     72  CD  PRO A   3      -9.406  -2.538  -9.171  1.00  0.00     0.127 C 
ATOM     73  C   ASP A   2      -9.514  -5.047  -8.905  1.00  0.00     0.243 C 
ATOM     74  CG  PRO A   3      -9.854  -1.733 -10.390  1.00  0.00     0.022 C 
ATOM     75  CB  PRO A   3      -9.134  -2.446 -11.530  1.00  0.00     0.037 C 
ATOM     76  O   ASP A   2      -9.412  -6.136  -9.476  1.00  0.00    -0.271 OA
BRANCH  73  77
ATOM     77  CA  ASP A   2      -9.408  -5.057  -7.339  1.00  0.00     0.186 C 
BRANCH  77  78
ATOM     78  CB  ASP A   2      -8.065  -5.556  -6.782  1.00  0.00     0.147 C 
BRANCH  78  79
ATOM     79  CG  ASP A   2      -7.803  -5.001  -5.392  1.00  0.00     0.175 C 
ATOM     80  OD2 ASP A   2      -8.481  -5.532  -4.481  1.00  0.00    -0.648 OA
ATOM     81  OD1 ASP A   2      -6.759  -4.351  -5.253  1.00  0.00    -0.648 OA
ENDBRANCH  78  79
ENDBRANCH  77  78
BRANCH  77  82
ATOM     82  N   ASP A   2     -10.484  -5.751  -6.587  1.00  0.00    -0.345 N 
ATOM     83  H   ASP A   2     -10.231  -6.679  -6.285  1.00  0.00     0.163 HD
ATOM     84  C   TYR A   1     -11.511  -5.117  -5.996  1.00  0.00     0.249 C 
ATOM     85  O   TYR A   1     -11.778  -3.963  -6.235  1.00  0.00    -0.271 OA
BRANCH  84  86
ATOM     86  CA  TYR A   1     -12.600  -5.893  -5.285  1.00  0.00     0.278 C 
BRANCH  86  87
ATOM     87  N   TYR A   1     -13.594  -6.420  -6.235  1.00  0.00    -0.066 N 
ATOM     88  H2  TYR A   1     -13.682  -5.802  -7.028  1.00  0.00     0.275 HD
ATOM     89  H1  TYR A   1     -14.486  -6.500  -5.767  1.00  0.00     0.275 HD
ATOM     90  H3  TYR A   1     -13.299  -7.337  -6.555  1.00  0.00     0.275 HD
ENDBRANCH  86  87
BRANCH  86  91
ATOM     91  CB  TYR A   1     -12.103  -6.942  -4.291  1.00  0.00     0.081 C 
BRANCH  91  92
ATOM     92  CG  TYR A   1     -11.576  -6.314  -3.013  1.00  0.00    -0.056 A 
ATOM     93  CD2 TYR A   1     -12.153  -5.111  -2.545  1.00  0.00     0.010 A 
ATOM     94  CE2 TYR A   1     -11.658  -4.500  -1.379  1.00  0.00     0.037 A 
ATOM     95  CZ  TYR A   1     -10.591  -5.095  -0.669  1.00  0.00     0.065 A 
ATOM     96  CE1 TYR A   1     -10.040  -6.312  -1.114  1.00  0.00     0.037 A 
ATOM     97  CD1 TYR A   1     -10.530  -6.930  -2.286  1.00  0.00     0.010 A 
BRANCH  95  98
ATOM     98  OH  TYR A   1     -10.097  -4.505   0.445  1.00  0.00    -0.361 OA
ATOM     99  HH  TYR A   1      -9.307  -4.946   0.759  1.00  0.00     0.217 HD
ENDBRANCH  95  98
ENDBRANCH  91  92
ENDBRANCH  86  91
ENDBRANCH  84  86
ENDBRANCH  77  82
ENDBRANCH  73  77
ENDBRANCH  68  70
ENDBRANCH  65  66
BRANCH  65 100
ATOM    100  CB  GLU A   4      -4.517  -4.939 -11.012  1.00  0.00     0.045 C 
BRANCH 100 101
ATOM    101  CG  GLU A   4      -3.620  -4.586 -12.210  1.00  0.00     0.116 C 
BRANCH 101 102
ATOM    102  CD  GLU A   4      -2.354  -5.458 -12.249  1.00  0.00     0.172 C 
ATOM    103  OE2 GLU A   4      -2.503  -6.622 -12.683  1.00  0.00    -0.648 OA
ATOM    104  OE1 GLU A   4      -1.383  -5.086 -11.543  1.00  0.00    -0.648 OA
ENDBRANCH 101 102
ENDBRANCH 100 101
ENDBRANCH  65 100
ENDBRANCH  63  65
ENDBRANCH  60  61
BRANCH  60 105
ATOM    105  CB  TYR A   5      -8.222  -9.487  -9.389  1.00  0.00     0.073 C 
BRANCH 105 106
ATOM    106  CG  TYR A   5      -8.062  -9.330  -7.880  1.00  0.00    -0.056 A 
ATOM    107  CD1 TYR A   5      -6.779  -9.179  -7.302  1.00  0.00     0.010 A 
ATOM    108  CE1 TYR A   5      -6.657  -8.877  -5.924  1.00  0.00     0.037 A 
ATOM    109  CZ  TYR A   5      -7.810  -8.738  -5.130  1.00  0.00     0.065 A 
ATOM    110  CE2 TYR A   5      -9.089  -8.919  -5.699  1.00  0.00     0.037 A 
ATOM    111  CD2 TYR A   5      -9.214  -9.206  -7.071  1.00  0.00     0.010 A 
BRANCH 109 112
ATOM    112  OH  TYR A   5      -7.697  -8.422  -3.819  1.00  0.00    -0.361 OA
ATOM    113  HH  TYR A   5      -7.006  -7.766  -3.708  1.00  0.00     0.217 HD
ENDBRANCH 109 112
ENDBRANCH 105 106
ENDBRANCH  60 105
ENDBRANCH   1  60
TORSDOF 38
ENDMDL
MODEL 2
REMARK VINA RESULT:      -5.6      2.676      8.429
REMARK WARNING: 32 MAX_TORS EXCEEDED!!!
REMARK  38 active torsions:
REMARK  status: ('A' for Active; 'I' for Inactive)
REMARK    1  A    between atoms: N_1  and  CA_2 
REMARK    2  A    between atoms: CA_2  and  CB_5 
REMARK    3  A    between atoms: CA_2  and  C_3 
REMARK       I    between atoms: C_3  and  N_17 
REMARK    4  A    between atoms: CB_5  and  CG_6 
REMARK    5  A    between atoms: CZ_10  and  OH_11 
REMARK    6  A    between atoms: N_17  and  CA_18 
REMARK    7  A    between atoms: CA_18  and  CB_21 
REMARK    8  A    between atoms: CA_18  and  C_19 
REMARK       I    between atoms: C_19  and  N_26 
REMARK    9  A    between atoms: CB_21  and  CG_22 
REMARK   10  A    between atoms: CA_27  and  C_28 
REMARK       I    between atoms: C_28  and  N_33 
REMARK   11  A    between atoms: N_33  and  CA_34 
REMARK   12  A    between atoms: CA_34  and  C_35 
REMARK   13  A    between atoms: CA_34  and  CB_37 
REMARK       I    between atoms: C_35  and  N_43 
REMARK   14  A    between atoms: CB_37  and  CG_38 
REMARK   15  A    between atoms: CG_38  and  CD_39 
REMARK   16  A    between atoms: N_43  and  CA_44 
REMARK   17  A    between atoms: CA_44  and  CB_47 
REMARK   18  A    between atoms: CA_44  and  C_45 
REMARK       I    between atoms: C_45  and  N_57 
REMARK   19  A    between atoms: CB_47  and  CG_48 
REMARK   20  A    between atoms: CZ_52  and  OH_53 
REMARK   21  A    between atoms: N_57  and  CA_58 
REMARK   22  A    between atoms: CA_58  and  CB_61 
REMARK   23  A    between atoms: CA_58  and  C_59 
REMARK       I    between atoms: C_59  and  N_74 
REMARK   24  A    between atoms: CB_61  and  CG_62 
REMARK   25  A    between atoms: CG_62  and  CD_63 
REMARK   26  A    between atoms: CD_63  and  NE_64 
REMARK       I    between atoms: NE_64  and  CZ_65 
REMARK       I    between atoms: CZ_65  and  NH2_66 
REMARK   27  A    between atoms: N_74  and  CA_75 
REMARK   28  A    between atoms: CA_75  and  CB_78 
REMARK   29  A    between atoms: CA_75  and  C_76 
REMARK       I    between atoms: C_76  and  N_85 
REMARK   30  A    between atoms: CB_78  and  CG_79 
REMARK       I    between atoms: CG_79  and  ND2_80 
REMARK   31  A    between atoms: N_85  and  CA_86 
REMARK   32  A    between atoms: CA_86  and  CB_89 
REMARK   33  A    between atoms: CA_86  and  C_87 
REMARK       I    between atoms: C_87  and  N_97 
REMARK   34  A    between atoms: CB_89  and  CG_90 
REMARK   35  A    between atoms: N_97  and  CA_98 
REMARK   36  A    between atoms: CA_98  and  C_99 
REMARK   37  A    between atoms: CA_98  and  CB_102 
REMARK   38  A    between atoms: CB_102  and  CG_103 
ROOT
ATOM      1  C   TYR A   5      -6.536  -8.594  -6.849  1.00  0.00     0.241 C 
ATOM      2  O   TYR A   5      -5.383  -8.705  -6.442  1.00  0.00    -0.271 OA
ATOM      3  N   ARG A   6      -7.587  -8.855  -6.051  1.00  0.00    -0.346 N 
ATOM      4  H   ARG A   6      -8.516  -8.727  -6.444  1.00  0.00     0.163 HD
ENDROOT
BRANCH   3   5
ATOM      5  CA  ARG A   6      -7.465  -9.252  -4.631  1.00  0.00     0.176 C 
BRANCH   5   6
ATOM      6  CB  ARG A   6      -8.560  -8.534  -3.816  1.00  0.00     0.036 C 
BRANCH   6   7
ATOM      7  CG  ARG A   6      -8.186  -7.081  -3.442  1.00  0.00     0.023 C 
BRANCH   7   8
ATOM      8  CD  ARG A   6      -9.127  -6.456  -2.400  1.00  0.00     0.138 C 
BRANCH   8   9
ATOM      9  NE  ARG A   6     -10.259  -5.742  -3.030  1.00  0.00    -0.227 N 
ATOM     10  HE  ARG A   6     -11.148  -6.206  -2.981  1.00  0.00     0.177 HD
ATOM     11  CZ  ARG A   6     -10.262  -4.525  -3.551  1.00  0.00     0.665 C 
ATOM     12  NH2 ARG A   6     -11.382  -4.005  -3.948  1.00  0.00    -0.235 N 
ATOM     13  NH1 ARG A   6      -9.193  -3.791  -3.682  1.00  0.00    -0.235 N 
ATOM     14 1HH2 ARG A   6     -12.229  -4.413  -3.601  1.00  0.00     0.174 HD
ATOM     15 2HH2 ARG A   6     -11.412  -3.002  -4.029  1.00  0.00     0.174 HD
ATOM     16 1HH1 ARG A   6      -8.359  -4.064  -3.195  1.00  0.00     0.174 HD
ATOM     17 2HH1 ARG A   6      -9.270  -2.854  -4.033  1.00  0.00     0.174 HD
ENDBRANCH   8   9
ENDBRANCH   7   8
ENDBRANCH   6   7
ENDBRANCH   5   6
BRANCH   5  18
ATOM     18  C   ARG A   6      -7.506 -10.780  -4.402  1.00  0.00     0.241 C 
ATOM     19  N   ASN A   7      -7.906 -11.589  -5.393  1.00  0.00    -0.346 N 
ATOM     20  H   ASN A   7      -8.070 -11.189  -6.308  1.00  0.00     0.163 HD
ATOM     21  O   ARG A   6      -7.290 -11.211  -3.276  1.00  0.00    -0.271 OA
BRANCH  19  22
ATOM     22  CA  ASN A   7      -7.872 -13.059  -5.264  1.00  0.00     0.185 C 
BRANCH  22  23
ATOM     23  CB  ASN A   7      -9.297 -13.645  -5.222  1.00  0.00     0.137 C 
BRANCH  23  24
ATOM     24  CG  ASN A   7     -10.104 -13.467  -3.952  1.00  0.00     0.217 C 
ATOM     25  ND2 ASN A   7     -10.164 -14.529  -3.178  1.00  0.00    -0.370 N 
ATOM     26 2HD2 ASN A   7      -9.874 -15.434  -3.543  1.00  0.00     0.159 HD
ATOM     27 1HD2 ASN A   7     -10.624 -14.438  -2.297  1.00  0.00     0.159 HD
ATOM     28  OD1 ASN A   7     -10.462 -12.375  -3.520  1.00  0.00    -0.274 OA
ENDBRANCH  23  24
ENDBRANCH  22  23
BRANCH  22  29
ATOM     29  C   ASN A   7      -7.093 -13.759  -6.399  1.00  0.00     0.241 C 
ATOM     30  N   PHE A   8      -7.801 -14.325  -7.388  1.00  0.00    -0.346 N 
ATOM     31  H   PHE A   8      -8.813 -14.319  -7.316  1.00  0.00     0.163 HD
ATOM     32  O   ASN A   7      -5.874 -13.893  -6.296  1.00  0.00    -0.271 OA
BRANCH  30  33
ATOM     33  CA  PHE A   8      -7.206 -14.939  -8.585  1.00  0.00     0.180 C 
BRANCH  33  34
ATOM     34  CB  PHE A   8      -6.684 -13.794  -9.479  1.00  0.00     0.073 C 
BRANCH  34  35
ATOM     35  CG  PHE A   8      -7.545 -13.497 -10.695  1.00  0.00    -0.056 A 
ATOM     36  CD1 PHE A   8      -8.668 -14.297 -10.980  1.00  0.00     0.007 A 
ATOM     37  CE1 PHE A   8      -9.385 -14.104 -12.175  1.00  0.00     0.001 A 
ATOM     38  CZ  PHE A   8      -8.983 -13.110 -13.084  1.00  0.00     0.000 A 
ATOM     39  CE2 PHE A   8      -7.882 -12.289 -12.785  1.00  0.00     0.001 A 
ATOM     40  CD2 PHE A   8      -7.168 -12.477 -11.589  1.00  0.00     0.007 A 
ENDBRANCH  34  35
ENDBRANCH  33  34
BRANCH  33  41
ATOM     41  C   PHE A   8      -6.108 -15.980  -8.252  1.00  0.00     0.241 C 
ATOM     42  N   TRP A   9      -4.838 -15.624  -8.503  1.00  0.00    -0.344 N 
ATOM     43  H   TRP A   9      -4.684 -14.700  -8.876  1.00  0.00     0.163 HD
ATOM     44  O   PHE A   8      -6.433 -17.090  -7.826  1.00  0.00    -0.271 OA
BRANCH  42  45
ATOM     45  CA  TRP A   9      -3.636 -16.462  -8.346  1.00  0.00     0.190 C 
BRANCH  45  46
ATOM     46  C   TRP A   9      -2.479 -15.803  -7.564  1.00  0.00     0.197 C 
ATOM     47  OXT TRP A   9      -2.788 -15.143  -6.538  1.00  0.00    -0.646 OA
ATOM     48  O   TRP A   9      -1.408 -15.648  -8.188  1.00  0.00    -0.646 OA
ENDBRANCH  45  46
BRANCH  45  49
ATOM     49  CB  TRP A   9      -3.183 -16.883  -9.753  1.00  0.00     0.077 C 
BRANCH  49  50
ATOM     50  CG  TRP A   9      -3.578 -15.926 -10.831  1.00  0.00    -0.028 A 
ATOM     51  CD1 TRP A   9      -2.787 -14.928 -11.275  1.00  0.00     0.096 A 
ATOM     52  NE1 TRP A   9      -3.360 -14.329 -12.377  1.00  0.00    -0.365 N 
ATOM     53  HE1 TRP A   9      -2.844 -13.704 -12.971  1.00  0.00     0.165 HD
ATOM     54  CE2 TRP A   9      -4.529 -14.962 -12.737  1.00  0.00     0.042 A 
ATOM     55  CD2 TRP A   9      -4.699 -15.991 -11.764  1.00  0.00    -0.002 A 
ATOM     56  CZ2 TRP A   9      -5.403 -14.792 -13.819  1.00  0.00     0.030 A 
ATOM     57  CE3 TRP A   9      -5.800 -16.859 -11.939  1.00  0.00     0.014 A 
ATOM     58  CZ3 TRP A   9      -6.676 -16.710 -13.033  1.00  0.00     0.001 A 
ATOM     59  CH2 TRP A   9      -6.481 -15.679 -13.971  1.00  0.00     0.002 A 
ENDBRANCH  49  50
ENDBRANCH  45  49
ENDBRANCH  42  45
ENDBRANCH  33  41
ENDBRANCH  30  33
ENDBRANCH  22  29
ENDBRANCH  19  22
ENDBRANCH   5  18
ENDBRANCH   3   5
BRANCH   1  60
ATOM     60  CA  TYR A   5      -6.776  -8.438  -8.361  1.00  0.00     0.180 C 
BRANCH  60  61
ATOM     61  N   TYR A   5      -8.103  -8.917  -8.765  1.00  0.00    -0.346 N 
ATOM     62  H   TYR A   5      -8.815  -8.234  -8.983  1.00  0.00     0.163 HD
ATOM     63  C   GLU A   4      -8.438 -10.217  -8.751  1.00  0.00     0.241 C 
ATOM     64  O   GLU A   4      -7.665 -11.064  -8.312  1.00  0.00    -0.271 OA
BRANCH  63  65
ATOM     65  CA  GLU A   4      -9.913 -10.573  -8.986  1.00  0.00     0.177 C 
BRANCH  65  66
ATOM     66  N   GLU A   4     -10.807  -9.627  -8.295  1.00  0.00    -0.346 N 
ATOM     67  H   GLU A   4     -11.110  -8.819  -8.824  1.00  0.00     0.163 HD
ATOM     68  C   PRO A   3     -11.012  -9.590  -6.974  1.00  0.00     0.241 C 
ATOM     69  O   PRO A   3     -10.513 -10.392  -6.203  1.00  0.00    -0.271 OA
BRANCH  68  70
ATOM     70  CA  PRO A   3     -11.940  -8.505  -6.411  1.00  0.00     0.179 C 
ATOM     71  N   PRO A   3     -11.860  -7.173  -7.050  1.00  0.00    -0.337 N 
ATOM     72  CD  PRO A   3     -13.205  -6.755  -7.438  1.00  0.00     0.127 C 
ATOM     73  C   ASP A   2     -10.739  -6.405  -7.018  1.00  0.00     0.243 C 
ATOM     74  CG  PRO A   3     -14.155  -7.614  -6.606  1.00  0.00     0.022 C 
ATOM     75  CB  PRO A   3     -13.407  -8.942  -6.532  1.00  0.00     0.037 C 
ATOM     76  O   ASP A   2      -9.690  -6.923  -6.627  1.00  0.00    -0.271 OA
BRANCH  73  77
ATOM     77  CA  ASP A   2     -10.605  -5.095  -7.873  1.00  0.00     0.186 C 
BRANCH  77  78
ATOM     78  CB  ASP A   2     -11.687  -4.035  -7.611  1.00  0.00     0.147 C 
BRANCH  78  79
ATOM     79  CG  ASP A   2     -11.106  -2.812  -6.921  1.00  0.00     0.175 C 
ATOM     80  OD2 ASP A   2     -11.960  -2.021  -6.454  1.00  0.00    -0.648 OA
ATOM     81  OD1 ASP A   2      -9.912  -2.879  -6.605  1.00  0.00    -0.648 OA
ENDBRANCH  78  79
ENDBRANCH  77  78
BRANCH  77  82
ATOM     82  N   ASP A   2     -10.484  -5.250  -9.345  1.00  0.00    -0.345 N 
ATOM     83  H   ASP A   2     -11.326  -5.587  -9.786  1.00  0.00     0.163 HD
ATOM     84  C   TYR A   1      -9.547  -4.636 -10.086  1.00  0.00     0.249 C 
ATOM     85  O   TYR A   1      -8.579  -4.107  -9.591  1.00  0.00    -0.271 OA
BRANCH  84  86
ATOM     86  CA  TYR A   1      -9.453  -4.877 -11.578  1.00  0.00     0.278 C 
BRANCH  86  87
ATOM     87  N   TYR A   1     -10.448  -4.081 -12.316  1.00  0.00    -0.066 N 
ATOM     88  H2  TYR A   1     -11.273  -3.941 -11.751  1.00  0.00     0.275 HD
ATOM     89  H1  TYR A   1     -10.698  -4.570 -13.164  1.00  0.00     0.275 HD
ATOM     90  H3  TYR A   1     -10.047  -3.180 -12.553  1.00  0.00     0.275 HD
ENDBRANCH  86  87
BRANCH  86  91
ATOM     91  CB  TYR A   1      -8.045  -4.772 -12.164  1.00  0.00     0.081 C 
BRANCH  91  92
ATOM     92  CG  TYR A   1      -7.584  -6.081 -12.781  1.00  0.00    -0.056 A 
ATOM     93  CD2 TYR A   1      -8.130  -7.297 -12.311  1.00  0.00     0.010 A 
ATOM     94  CE2 TYR A   1      -7.693  -8.520 -12.851  1.00  0.00     0.037 A 
ATOM     95  CZ  TYR A   1      -6.717  -8.531 -13.873  1.00  0.00     0.065 A 
ATOM     96  CE1 TYR A   1      -6.200  -7.319 -14.367  1.00  0.00     0.037 A 
ATOM     97  CD1 TYR A   1      -6.631  -6.087 -13.827  1.00  0.00     0.010 A 
BRANCH  95  98
ATOM     98  OH  TYR A   1      -6.279  -9.704 -14.387  1.00  0.00    -0.361 OA
ATOM     99  HH  TYR A   1      -5.882  -9.587 -15.251  1.00  0.00     0.217 HD
ENDBRANCH  95  98
ENDBRANCH  91  92
ENDBRANCH  86  91
ENDBRANCH  84  86
ENDBRANCH  77  82
ENDBRANCH  73  77
ENDBRANCH  68  70
ENDBRANCH  65  66
BRANCH  65 100
ATOM    100  CB  GLU A   4     -10.250 -10.574 -10.494  1.00  0.00     0.045 C 
BRANCH 100 101
ATOM    101  CG  GLU A   4     -11.648 -10.052 -10.861  1.00  0.00     0.116 C 
BRANCH 101 102
ATOM    102  CD  GLU A   4     -11.592  -8.618 -11.416  1.00  0.00     0.172 C 
ATOM    103  OE2 GLU A   4     -11.454  -8.515 -12.655  1.00  0.00    -0.648 OA
ATOM    104  OE1 GLU A   4     -11.337  -7.700 -10.597  1.00  0.00    -0.648 OA
ENDBRANCH 101 102
ENDBRANCH 100 101
ENDBRANCH  65 100
ENDBRANCH  63  65
ENDBRANCH  60  61
BRANCH  60 105
ATOM    105  CB  TYR A   5      -6.561  -6.985  -8.826  1.00  0.00     0.073 C 
BRANCH 105 106
ATOM    106  CG  TYR A   5      -5.425  -6.754  -9.817  1.00  0.00    -0.056 A 
ATOM    107  CD1 TYR A   5      -4.877  -7.832 -10.552  1.00  0.00     0.010 A 
ATOM    108  CE1 TYR A   5      -3.935  -7.580 -11.580  1.00  0.00     0.037 A 
ATOM    109  CZ  TYR A   5      -3.537  -6.260 -11.860  1.00  0.00     0.065 A 
ATOM    110  CE2 TYR A   5      -4.060  -5.186 -11.108  1.00  0.00     0.037 A 
ATOM    111  CD2 TYR A   5      -5.007  -5.432 -10.095  1.00  0.00     0.010 A 
BRANCH 109 112
ATOM    112  OH  TYR A   5      -2.659  -6.014 -12.860  1.00  0.00    -0.361 OA
ATOM    113  HH  TYR A   5      -3.122  -6.025 -13.700  1.00  0.00     0.217 HD
ENDBRANCH 109 112
ENDBRANCH 105 106
ENDBRANCH  60 105
ENDBRANCH   1  60
TORSDOF 38
ENDMDL
MODEL 3
REMARK VINA RESULT:      -5.6     19.413     23.969
REMARK WARNING: 32 MAX_TORS EXCEEDED!!!
REMARK  38 active torsions:
REMARK  status: ('A' for Active; 'I' for Inactive)
REMARK    1  A    between atoms: N_1  and  CA_2 
REMARK    2  A    between atoms: CA_2  and  CB_5 
REMARK    3  A    between atoms: CA_2  and  C_3 
REMARK       I    between atoms: C_3  and  N_17 
REMARK    4  A    between atoms: CB_5  and  CG_6 
REMARK    5  A    between atoms: CZ_10  and  OH_11 
REMARK    6  A    between atoms: N_17  and  CA_18 
REMARK    7  A    between atoms: CA_18  and  CB_21 
REMARK    8  A    between atoms: CA_18  and  C_19 
REMARK       I    between atoms: C_19  and  N_26 
REMARK    9  A    between atoms: CB_21  and  CG_22 
REMARK   10  A    between atoms: CA_27  and  C_28 
REMARK       I    between atoms: C_28  and  N_33 
REMARK   11  A    between atoms: N_33  and  CA_34 
REMARK   12  A    between atoms: CA_34  and  C_35 
REMARK   13  A    between atoms: CA_34  and  CB_37 
REMARK       I    between atoms: C_35  and  N_43 
REMARK   14  A    between atoms: CB_37  and  CG_38 
REMARK   15  A    between atoms: CG_38  and  CD_39 
REMARK   16  A    between atoms: N_43  and  CA_44 
REMARK   17  A    between atoms: CA_44  and  CB_47 
REMARK   18  A    between atoms: CA_44  and  C_45 
REMARK       I    between atoms: C_45  and  N_57 
REMARK   19  A    between atoms: CB_47  and  CG_48 
REMARK   20  A    between atoms: CZ_52  and  OH_53 
REMARK   21  A    between atoms: N_57  and  CA_58 
REMARK   22  A    between atoms: CA_58  and  CB_61 
REMARK   23  A    between atoms: CA_58  and  C_59 
REMARK       I    between atoms: C_59  and  N_74 
REMARK   24  A    between atoms: CB_61  and  CG_62 
REMARK   25  A    between atoms: CG_62  and  CD_63 
REMARK   26  A    between atoms: CD_63  and  NE_64 
REMARK       I    between atoms: NE_64  and  CZ_65 
REMARK       I    between atoms: CZ_65  and  NH2_66 
REMARK   27  A    between atoms: N_74  and  CA_75 
REMARK   28  A    between atoms: CA_75  and  CB_78 
REMARK   29  A    between atoms: CA_75  and  C_76 
REMARK       I    between atoms: C_76  and  N_85 
REMARK   30  A    between atoms: CB_78  and  CG_79 
REMARK       I    between atoms: CG_79  and  ND2_80 
REMARK   31  A    between atoms: N_85  and  CA_86 
REMARK   32  A    between atoms: CA_86  and  CB_89 
REMARK   33  A    between atoms: CA_86  and  C_87 
REMARK       I    between atoms: C_87  and  N_97 
REMARK   34  A    between atoms: CB_89  and  CG_90 
REMARK   35  A    between atoms: N_97  and  CA_98 
REMARK   36  A    between atoms: CA_98  and  C_99 
REMARK   37  A    between atoms: CA_98  and  CB_102 
REMARK   38  A    between atoms: CB_102  and  CG_103 
ROOT
ATOM      1  C   TYR A   5      16.774 -12.325 -10.719  1.00  0.00     0.241 C 
ATOM      2  O   TYR A   5      16.881 -11.875  -9.581  1.00  0.00    -0.271 OA
ATOM      3  N   ARG A   6      17.453 -11.791 -11.750  1.00  0.00    -0.346 N 
ATOM      4  H   ARG A   6      17.333 -12.222 -12.663  1.00  0.00     0.163 HD
ENDROOT
BRANCH   3   5
ATOM      5  CA  ARG A   6      18.402 -10.663 -11.615  1.00  0.00     0.176 C 
BRANCH   5   6
ATOM      6  CB  ARG A   6      17.635  -9.340 -11.813  1.00  0.00     0.036 C 
BRANCH   6   7
ATOM      7  CG  ARG A   6      18.079  -8.562 -13.074  1.00  0.00     0.023 C 
BRANCH   7   8
ATOM      8  CD  ARG A   6      16.934  -8.301 -14.066  1.00  0.00     0.138 C 
BRANCH   8   9
ATOM      9  NE  ARG A   6      15.755  -9.151 -13.789  1.00  0.00    -0.227 N 
ATOM     10  HE  ARG A   6      15.952 -10.112 -13.574  1.00  0.00     0.177 HD
ATOM     11  CZ  ARG A   6      14.490  -8.775 -13.685  1.00  0.00     0.665 C 
ATOM     12  NH2 ARG A   6      13.598  -9.638 -13.309  1.00  0.00    -0.235 N 
ATOM     13  NH1 ARG A   6      14.072  -7.564 -13.926  1.00  0.00    -0.235 N 
ATOM     14 1HH2 ARG A   6      13.923 -10.467 -12.850  1.00  0.00     0.174 HD
ATOM     15 2HH2 ARG A   6      12.741  -9.269 -12.933  1.00  0.00     0.174 HD
ATOM     16 1HH1 ARG A   6      14.750  -6.827 -14.004  1.00  0.00     0.174 HD
ATOM     17 2HH1 ARG A   6      13.109  -7.328 -13.775  1.00  0.00     0.174 HD
ENDBRANCH   8   9
ENDBRANCH   7   8
ENDBRANCH   6   7
ENDBRANCH   5   6
BRANCH   5  18
ATOM     18  C   ARG A   6      19.189 -10.662 -10.285  1.00  0.00     0.241 C 
ATOM     19  N   ASN A   7      18.998  -9.671  -9.402  1.00  0.00    -0.346 N 
ATOM     20  H   ASN A   7      18.260  -9.002  -9.579  1.00  0.00     0.163 HD
ATOM     21  O   ARG A   6      20.064 -11.502 -10.120  1.00  0.00    -0.271 OA
BRANCH  19  22
ATOM     22  CA  ASN A   7      19.647  -9.670  -8.077  1.00  0.00     0.185 C 
BRANCH  22  23
ATOM     23  CB  ASN A   7      19.821  -8.233  -7.547  1.00  0.00     0.137 C 
BRANCH  23  24
ATOM     24  CG  ASN A   7      18.866  -7.169  -8.047  1.00  0.00     0.217 C 
ATOM     25  ND2 ASN A   7      17.895  -6.857  -7.216  1.00  0.00    -0.370 N 
ATOM     26 2HD2 ASN A   7      17.704  -7.459  -6.418  1.00  0.00     0.159 HD
ATOM     27 1HD2 ASN A   7      17.284  -6.111  -7.473  1.00  0.00     0.159 HD
ATOM     28  OD1 ASN A   7      19.094  -6.451  -9.017  1.00  0.00    -0.274 OA
ENDBRANCH  23  24
ENDBRANCH  22  23
BRANCH  22  29
ATOM     29  C   ASN A   7      18.882 -10.490  -7.015  1.00  0.00     0.241 C 
ATOM     30  N   PHE A   8      19.224 -11.777  -6.853  1.00  0.00    -0.346 N 
ATOM     31  H   PHE A   8      19.927 -12.167  -7.472  1.00  0.00     0.163 HD
ATOM     32  O   ASN A   7      17.907  -9.988  -6.456  1.00  0.00    -0.271 OA
BRANCH  30  33
ATOM     33  CA  PHE A   8      18.661 -12.660  -5.819  1.00  0.00     0.180 C 
BRANCH  33  34
ATOM     34  CB  PHE A   8      19.039 -14.109  -6.193  1.00  0.00     0.073 C 
BRANCH  34  35
ATOM     35  CG  PHE A   8      17.940 -15.130  -5.959  1.00  0.00    -0.056 A 
ATOM     36  CD1 PHE A   8      18.218 -16.507  -6.062  1.00  0.00     0.007 A 
ATOM     37  CE1 PHE A   8      17.173 -17.444  -5.977  1.00  0.00     0.001 A 
ATOM     38  CZ  PHE A   8      15.850 -17.008  -5.786  1.00  0.00     0.000 A 
ATOM     39  CE2 PHE A   8      15.575 -15.636  -5.650  1.00  0.00     0.001 A 
ATOM     40  CD2 PHE A   8      16.620 -14.699  -5.729  1.00  0.00     0.007 A 
ENDBRANCH  34  35
ENDBRANCH  33  34
BRANCH  33  41
ATOM     41  C   PHE A   8      19.111 -12.280  -4.387  1.00  0.00     0.241 C 
ATOM     42  N   TRP A   9      20.430 -12.314  -4.135  1.00  0.00    -0.344 N 
ATOM     43  H   TRP A   9      21.037 -12.569  -4.898  1.00  0.00     0.163 HD
ATOM     44  O   PHE A   8      18.262 -12.015  -3.533  1.00  0.00    -0.271 OA
BRANCH  42  45
ATOM     45  CA  TRP A   9      21.091 -12.073  -2.841  1.00  0.00     0.190 C 
BRANCH  45  46
ATOM     46  C   TRP A   9      22.472 -11.387  -2.931  1.00  0.00     0.197 C 
ATOM     47  OXT TRP A   9      23.484 -12.123  -2.794  1.00  0.00    -0.646 OA
ATOM     48  O   TRP A   9      22.488 -10.151  -2.750  1.00  0.00    -0.646 OA
ENDBRANCH  45  46
BRANCH  45  49
ATOM     49  CB  TRP A   9      21.192 -13.425  -2.118  1.00  0.00     0.077 C 
BRANCH  49  50
ATOM     50  CG  TRP A   9      20.058 -13.703  -1.186  1.00  0.00    -0.028 A 
ATOM     51  CD1 TRP A   9      19.807 -12.982  -0.074  1.00  0.00     0.096 A 
ATOM     52  NE1 TRP A   9      18.608 -13.375   0.482  1.00  0.00    -0.365 N 
ATOM     53  HE1 TRP A   9      18.148 -12.834   1.193  1.00  0.00     0.165 HD
ATOM     54  CE2 TRP A   9      17.992 -14.333  -0.291  1.00  0.00     0.042 A 
ATOM     55  CD2 TRP A   9      18.896 -14.568  -1.369  1.00  0.00    -0.002 A 
ATOM     56  CZ2 TRP A   9      16.742 -14.961  -0.202  1.00  0.00     0.030 A 
ATOM     57  CE3 TRP A   9      18.474 -15.469  -2.373  1.00  0.00     0.014 A 
ATOM     58  CZ3 TRP A   9      17.212 -16.092  -2.304  1.00  0.00     0.001 A 
ATOM     59  CH2 TRP A   9      16.347 -15.842  -1.222  1.00  0.00     0.002 A 
ENDBRANCH  49  50
ENDBRANCH  45  49
ENDBRANCH  42  45
ENDBRANCH  33  41
ENDBRANCH  30  33
ENDBRANCH  22  29
ENDBRANCH  19  22
ENDBRANCH   5  18
ENDBRANCH   3   5
BRANCH   1  60
ATOM     60  CA  TYR A   5      15.636 -13.318 -11.018  1.00  0.00     0.180 C 
BRANCH  60  61
ATOM     61  N   TYR A   5      15.520 -13.614 -12.451  1.00  0.00    -0.346 N 
ATOM     62  H   TYR A   5      16.318 -14.011 -12.926  1.00  0.00     0.163 HD
ATOM     63  C   GLU A   4      14.438 -13.280 -13.173  1.00  0.00     0.241 C 
ATOM     64  O   GLU A   4      13.525 -12.627 -12.676  1.00  0.00    -0.271 OA
BRANCH  63  65
ATOM     65  CA  GLU A   4      14.523 -13.447 -14.697  1.00  0.00     0.177 C 
BRANCH  65  66
ATOM     66  N   GLU A   4      13.767 -12.390 -15.392  1.00  0.00    -0.346 N 
ATOM     67  H   GLU A   4      13.953 -11.436 -15.108  1.00  0.00     0.163 HD
ATOM     68  C   PRO A   3      12.678 -12.590 -16.140  1.00  0.00     0.241 C 
ATOM     69  O   PRO A   3      12.226 -13.699 -16.371  1.00  0.00    -0.271 OA
BRANCH  68  70
ATOM     70  CA  PRO A   3      11.980 -11.368 -16.755  1.00  0.00     0.179 C 
ATOM     71  N   PRO A   3      11.224 -10.504 -15.823  1.00  0.00    -0.337 N 
ATOM     72  CD  PRO A   3      11.669  -9.123 -15.995  1.00  0.00     0.127 C 
ATOM     73  C   ASP A   2      10.133 -10.934 -15.136  1.00  0.00     0.243 C 
ATOM     74  CG  PRO A   3      12.350  -9.081 -17.362  1.00  0.00     0.022 C 
ATOM     75  CB  PRO A   3      13.010 -10.454 -17.435  1.00  0.00     0.037 C 
ATOM     76  O   ASP A   2       9.891 -12.144 -15.128  1.00  0.00    -0.271 OA
BRANCH  73  77
ATOM     77  CA  ASP A   2       9.471 -10.074 -14.003  1.00  0.00     0.186 C 
BRANCH  77  78
ATOM     78  CB  ASP A   2       9.254  -8.593 -14.355  1.00  0.00     0.147 C 
BRANCH  78  79
ATOM     79  CG  ASP A   2       7.836  -8.151 -14.032  1.00  0.00     0.175 C 
ATOM     80  OD2 ASP A   2       7.331  -7.364 -14.867  1.00  0.00    -0.648 OA
ATOM     81  OD1 ASP A   2       7.227  -8.837 -13.203  1.00  0.00    -0.648 OA
ENDBRANCH  78  79
ENDBRANCH  77  78
BRANCH  77  82
ATOM     82  N   ASP A   2      10.097 -10.121 -12.657  1.00  0.00    -0.345 N 
ATOM     83  H   ASP A   2      10.706  -9.340 -12.467  1.00  0.00     0.163 HD
ATOM     84  C   TYR A   1       9.619 -10.854 -11.636  1.00  0.00     0.249 C 
ATOM     85  O   TYR A   1       8.792 -11.720 -11.798  1.00  0.00    -0.271 OA
BRANCH  84  86
ATOM     86  CA  TYR A   1      10.336 -10.892 -10.303  1.00  0.00     0.278 C 
BRANCH  86  87
ATOM     87  N   TYR A   1       9.465 -11.418  -9.238  1.00  0.00    -0.066 N 
ATOM     88  H2  TYR A   1      10.007 -11.627  -8.413  1.00  0.00     0.275 HD
ATOM     89  H1  TYR A   1       9.013 -12.259  -9.568  1.00  0.00     0.275 HD
ATOM     90  H3  TYR A   1       8.760 -10.726  -9.010  1.00  0.00     0.275 HD
ENDBRANCH  86  87
BRANCH  86  91
ATOM     91  CB  TYR A   1      11.716 -11.546 -10.328  1.00  0.00     0.081 C 
BRANCH  91  92
ATOM     92  CG  TYR A   1      12.721 -10.795  -9.473  1.00  0.00    -0.056 A 
ATOM     93  CD2 TYR A   1      13.789 -10.113 -10.099  1.00  0.00     0.010 A 
ATOM     94  CE2 TYR A   1      14.745  -9.436  -9.320  1.00  0.00     0.037 A 
ATOM     95  CZ  TYR A   1      14.630  -9.429  -7.911  1.00  0.00     0.065 A 
ATOM     96  CE1 TYR A   1      13.547 -10.078  -7.289  1.00  0.00     0.037 A 
ATOM     97  CD1 TYR A   1      12.585 -10.762  -8.065  1.00  0.00     0.010 A 
BRANCH  95  98
ATOM     98  OH  TYR A   1      15.555  -8.795  -7.153  1.00  0.00    -0.361 OA
ATOM     99  HH  TYR A   1      16.439  -9.123  -7.324  1.00  0.00     0.217 HD
ENDBRANCH  95  98
ENDBRANCH  91  92
ENDBRANCH  86  91
ENDBRANCH  84  86
ENDBRANCH  77  82
ENDBRANCH  73  77
ENDBRANCH  68  70
ENDBRANCH  65  66
BRANCH  65 100
ATOM    100  CB  GLU A   4      15.990 -13.418 -15.177  1.00  0.00     0.045 C 
BRANCH 100 101
ATOM    101  CG  GLU A   4      16.409 -12.158 -15.952  1.00  0.00     0.116 C 
BRANCH 101 102
ATOM    102  CD  GLU A   4      17.783 -11.639 -15.497  1.00  0.00     0.172 C 
ATOM    103  OE2 GLU A   4      18.324 -10.792 -16.242  1.00  0.00    -0.648 OA
ATOM    104  OE1 GLU A   4      18.400 -12.331 -14.647  1.00  0.00    -0.648 OA
ENDBRANCH 101 102
ENDBRANCH 100 101
ENDBRANCH  65 100
ENDBRANCH  63  65
ENDBRANCH  60  61
BRANCH  60 105
ATOM    105  CB  TYR A   5      15.788 -14.620 -10.208  1.00  0.00     0.073 C 
BRANCH 105 106
ATOM    106  CG  TYR A   5      14.575 -15.052  -9.390  1.00  0.00    -0.056 A 
ATOM    107  CD1 TYR A   5      14.236 -16.421  -9.270  1.00  0.00     0.010 A 
ATOM    108  CE1 TYR A   5      13.206 -16.817  -8.382  1.00  0.00     0.037 A 
ATOM    109  CZ  TYR A   5      12.515 -15.850  -7.630  1.00  0.00     0.065 A 
ATOM    110  CE2 TYR A   5      12.831 -14.482  -7.772  1.00  0.00     0.037 A 
ATOM    111  CD2 TYR A   5      13.864 -14.085  -8.643  1.00  0.00     0.010 A 
BRANCH 109 112
ATOM    112  OH  TYR A   5      11.550 -16.229  -6.761  1.00  0.00    -0.361 OA
ATOM    113  HH  TYR A   5      10.705 -15.873  -7.046  1.00  0.00     0.217 HD
ENDBRANCH 109 112
ENDBRANCH 105 106
ENDBRANCH  60 105
ENDBRANCH   1  60
TORSDOF 38
ENDMDL
MODEL 4
REMARK VINA RESULT:      -5.6     14.369     20.501
REMARK WARNING: 32 MAX_TORS EXCEEDED!!!
REMARK  38 active torsions:
REMARK  status: ('A' for Active; 'I' for Inactive)
REMARK    1  A    between atoms: N_1  and  CA_2 
REMARK    2  A    between atoms: CA_2  and  CB_5 
REMARK    3  A    between atoms: CA_2  and  C_3 
REMARK       I    between atoms: C_3  and  N_17 
REMARK    4  A    between atoms: CB_5  and  CG_6 
REMARK    5  A    between atoms: CZ_10  and  OH_11 
REMARK    6  A    between atoms: N_17  and  CA_18 
REMARK    7  A    between atoms: CA_18  and  CB_21 
REMARK    8  A    between atoms: CA_18  and  C_19 
REMARK       I    between atoms: C_19  and  N_26 
REMARK    9  A    between atoms: CB_21  and  CG_22 
REMARK   10  A    between atoms: CA_27  and  C_28 
REMARK       I    between atoms: C_28  and  N_33 
REMARK   11  A    between atoms: N_33  and  CA_34 
REMARK   12  A    between atoms: CA_34  and  C_35 
REMARK   13  A    between atoms: CA_34  and  CB_37 
REMARK       I    between atoms: C_35  and  N_43 
REMARK   14  A    between atoms: CB_37  and  CG_38 
REMARK   15  A    between atoms: CG_38  and  CD_39 
REMARK   16  A    between atoms: N_43  and  CA_44 
REMARK   17  A    between atoms: CA_44  and  CB_47 
REMARK   18  A    between atoms: CA_44  and  C_45 
REMARK       I    between atoms: C_45  and  N_57 
REMARK   19  A    between atoms: CB_47  and  CG_48 
REMARK   20  A    between atoms: CZ_52  and  OH_53 
REMARK   21  A    between atoms: N_57  and  CA_58 
REMARK   22  A    between atoms: CA_58  and  CB_61 
REMARK   23  A    between atoms: CA_58  and  C_59 
REMARK       I    between atoms: C_59  and  N_74 
REMARK   24  A    between atoms: CB_61  and  CG_62 
REMARK   25  A    between atoms: CG_62  and  CD_63 
REMARK   26  A    between atoms: CD_63  and  NE_64 
REMARK       I    between atoms: NE_64  and  CZ_65 
REMARK       I    between atoms: CZ_65  and  NH2_66 
REMARK   27  A    between atoms: N_74  and  CA_75 
REMARK   28  A    between atoms: CA_75  and  CB_78 
REMARK   29  A    between atoms: CA_75  and  C_76 
REMARK       I    between atoms: C_76  and  N_85 
REMARK   30  A    between atoms: CB_78  and  CG_79 
REMARK       I    between atoms: CG_79  and  ND2_80 
REMARK   31  A    between atoms: N_85  and  CA_86 
REMARK   32  A    between atoms: CA_86  and  CB_89 
REMARK   33  A    between atoms: CA_86  and  C_87 
REMARK       I    between atoms: C_87  and  N_97 
REMARK   34  A    between atoms: CB_89  and  CG_90 
REMARK   35  A    between atoms: N_97  and  CA_98 
REMARK   36  A    between atoms: CA_98  and  C_99 
REMARK   37  A    between atoms: CA_98  and  CB_102 
REMARK   38  A    between atoms: CB_102  and  CG_103 
ROOT
ATOM      1  C   TYR A   5      -8.147 -27.039  -5.539  1.00  0.00     0.241 C 
ATOM      2  O   TYR A   5      -9.011 -26.214  -5.253  1.00  0.00    -0.271 OA
ATOM      3  N   ARG A   6      -7.507 -27.739  -4.586  1.00  0.00    -0.346 N 
ATOM      4  H   ARG A   6      -6.816 -28.419  -4.890  1.00  0.00     0.163 HD
ENDROOT
BRANCH   3   5
ATOM      5  CA  ARG A   6      -7.798 -27.619  -3.139  1.00  0.00     0.176 C 
BRANCH   5   6
ATOM      6  CB  ARG A   6      -7.872 -29.032  -2.527  1.00  0.00     0.036 C 
BRANCH   6   7
ATOM      7  CG  ARG A   6      -9.007 -29.187  -1.488  1.00  0.00     0.023 C 
BRANCH   7   8
ATOM      8  CD  ARG A   6     -10.337 -29.657  -2.100  1.00  0.00     0.138 C 
BRANCH   8   9
ATOM      9  NE  ARG A   6     -10.222 -29.903  -3.554  1.00  0.00    -0.227 N 
ATOM     10  HE  ARG A   6      -9.775 -30.763  -3.816  1.00  0.00     0.177 HD
ATOM     11  CZ  ARG A   6     -10.733 -29.184  -4.542  1.00  0.00     0.665 C 
ATOM     12  NH2 ARG A   6     -10.642 -29.620  -5.759  1.00  0.00    -0.235 N 
ATOM     13  NH1 ARG A   6     -11.348 -28.048  -4.368  1.00  0.00    -0.235 N 
ATOM     14 1HH2 ARG A   6     -10.444 -30.594  -5.888  1.00  0.00     0.174 HD
ATOM     15 2HH2 ARG A   6     -11.295 -29.242  -6.426  1.00  0.00     0.174 HD
ATOM     16 1HH1 ARG A   6     -11.628 -27.790  -3.438  1.00  0.00     0.174 HD
ATOM     17 2HH1 ARG A   6     -11.762 -27.579  -5.151  1.00  0.00     0.174 HD
ENDBRANCH   8   9
ENDBRANCH   7   8
ENDBRANCH   6   7
ENDBRANCH   5   6
BRANCH   5  18
ATOM     18  C   ARG A   6      -6.798 -26.726  -2.371  1.00  0.00     0.241 C 
ATOM     19  N   ASN A   7      -6.860 -26.659  -1.034  1.00  0.00    -0.346 N 
ATOM     20  H   ASN A   7      -7.494 -27.281  -0.547  1.00  0.00     0.163 HD
ATOM     21  O   ARG A   6      -6.047 -26.001  -3.010  1.00  0.00    -0.271 OA
BRANCH  19  22
ATOM     22  CA  ASN A   7      -5.871 -25.902  -0.242  1.00  0.00     0.185 C 
BRANCH  22  23
ATOM     23  CB  ASN A   7      -6.545 -25.179   0.941  1.00  0.00     0.137 C 
BRANCH  23  24
ATOM     24  CG  ASN A   7      -6.071 -23.781   1.285  1.00  0.00     0.217 C 
ATOM     25  ND2 ASN A   7      -5.988 -22.955   0.265  1.00  0.00    -0.370 N 
ATOM     26 2HD2 ASN A   7      -6.027 -23.322  -0.684  1.00  0.00     0.159 HD
ATOM     27 1HD2 ASN A   7      -5.749 -22.005   0.453  1.00  0.00     0.159 HD
ATOM     28  OD1 ASN A   7      -6.014 -23.345   2.431  1.00  0.00    -0.274 OA
ENDBRANCH  23  24
ENDBRANCH  22  23
BRANCH  22  29
ATOM     29  C   ASN A   7      -4.726 -26.778   0.313  1.00  0.00     0.241 C 
ATOM     30  N   PHE A   8      -3.466 -26.397   0.056  1.00  0.00    -0.346 N 
ATOM     31  H   PHE A   8      -3.323 -25.587  -0.537  1.00  0.00     0.163 HD
ATOM     32  O   ASN A   7      -4.998 -27.853   0.848  1.00  0.00    -0.271 OA
BRANCH  30  33
ATOM     33  CA  PHE A   8      -2.272 -27.066   0.597  1.00  0.00     0.180 C 
BRANCH  33  34
ATOM     34  CB  PHE A   8      -1.126 -26.854  -0.415  1.00  0.00     0.073 C 
BRANCH  34  35
ATOM     35  CG  PHE A   8      -0.300 -28.095  -0.705  1.00  0.00    -0.056 A 
ATOM     36  CD1 PHE A   8       0.329 -28.251  -1.956  1.00  0.00     0.007 A 
ATOM     37  CE1 PHE A   8       0.981 -29.457  -2.270  1.00  0.00     0.001 A 
ATOM     38  CZ  PHE A   8       1.007 -30.507  -1.335  1.00  0.00     0.000 A 
ATOM     39  CE2 PHE A   8       0.408 -30.340  -0.074  1.00  0.00     0.001 A 
ATOM     40  CD2 PHE A   8      -0.239 -29.133   0.243  1.00  0.00     0.007 A 
ENDBRANCH  34  35
ENDBRANCH  33  34
BRANCH  33  41
ATOM     41  C   PHE A   8      -1.901 -26.586   2.022  1.00  0.00     0.241 C 
ATOM     42  N   TRP A   9      -1.404 -25.344   2.135  1.00  0.00    -0.344 N 
ATOM     43  H   TRP A   9      -1.320 -24.804   1.288  1.00  0.00     0.163 HD
ATOM     44  O   PHE A   8      -2.025 -27.359   2.975  1.00  0.00    -0.271 OA
BRANCH  42  45
ATOM     45  CA  TRP A   9      -0.909 -24.696   3.362  1.00  0.00     0.190 C 
BRANCH  45  46
ATOM     46  C   TRP A   9      -1.628 -23.383   3.743  1.00  0.00     0.197 C 
ATOM     47  OXT TRP A   9      -1.656 -23.082   4.964  1.00  0.00    -0.646 OA
ATOM     48  O   TRP A   9      -2.434 -22.930   2.901  1.00  0.00    -0.646 OA
ENDBRANCH  45  46
BRANCH  45  49
ATOM     49  CB  TRP A   9       0.600 -24.468   3.184  1.00  0.00     0.077 C 
BRANCH  49  50
ATOM     50  CG  TRP A   9       1.398 -25.727   3.087  1.00  0.00    -0.028 A 
ATOM     51  CD1 TRP A   9       1.356 -26.715   4.004  1.00  0.00     0.096 A 
ATOM     52  NE1 TRP A   9       2.069 -27.806   3.554  1.00  0.00    -0.365 N 
ATOM     53  HE1 TRP A   9       1.997 -28.707   3.993  1.00  0.00     0.165 HD
ATOM     54  CE2 TRP A   9       2.556 -27.593   2.284  1.00  0.00     0.042 A 
ATOM     55  CD2 TRP A   9       2.145 -26.268   1.954  1.00  0.00    -0.002 A 
ATOM     56  CZ2 TRP A   9       3.242 -28.418   1.383  1.00  0.00     0.030 A 
ATOM     57  CE3 TRP A   9       2.451 -25.809   0.653  1.00  0.00     0.014 A 
ATOM     58  CZ3 TRP A   9       3.124 -26.636  -0.268  1.00  0.00     0.001 A 
ATOM     59  CH2 TRP A   9       3.522 -27.936   0.093  1.00  0.00     0.002 A 
ENDBRANCH  49  50
ENDBRANCH  45  49
ENDBRANCH  42  45
ENDBRANCH  33  41
ENDBRANCH  30  33
ENDBRANCH  22  29
ENDBRANCH  19  22
ENDBRANCH   5  18
ENDBRANCH   3   5
BRANCH   1  60
ATOM     60  CA  TYR A   5      -7.590 -27.061  -6.973  1.00  0.00     0.180 C 
BRANCH  60  61
ATOM     61  N   TYR A   5      -8.518 -27.692  -7.919  1.00  0.00    -0.346 N 
ATOM     62  H   TYR A   5      -9.399 -27.235  -8.105  1.00  0.00     0.163 HD
ATOM     63  C   GLU A   4      -8.288 -28.900  -8.461  1.00  0.00     0.241 C 
ATOM     64  O   GLU A   4      -7.322 -29.573  -8.117  1.00  0.00    -0.271 OA
BRANCH  63  65
ATOM     65  CA  GLU A   4      -9.427 -29.545  -9.264  1.00  0.00     0.177 C 
BRANCH  65  66
ATOM     66  N   GLU A   4     -10.461 -28.555  -9.613  1.00  0.00    -0.346 N 
ATOM     67  H   GLU A   4     -10.165 -27.768 -10.176  1.00  0.00     0.163 HD
ATOM     68  C   PRO A   3     -11.658 -28.455  -9.025  1.00  0.00     0.241 C 
ATOM     69  O   PRO A   3     -12.039 -29.227  -8.162  1.00  0.00    -0.271 OA
BRANCH  68  70
ATOM     70  CA  PRO A   3     -12.600 -27.331  -9.478  1.00  0.00     0.179 C 
ATOM     71  N   PRO A   3     -11.985 -26.221 -10.238  1.00  0.00    -0.337 N 
ATOM     72  CD  PRO A   3     -12.732 -26.028 -11.478  1.00  0.00     0.127 C 
ATOM     73  C   ASP A   2     -11.050 -25.390  -9.705  1.00  0.00     0.243 C 
ATOM     74  CG  PRO A   3     -14.085 -26.699 -11.248  1.00  0.00     0.022 C 
ATOM     75  CB  PRO A   3     -13.708 -27.895 -10.380  1.00  0.00     0.037 C 
ATOM     76  O   ASP A   2     -10.545 -25.700  -8.623  1.00  0.00    -0.271 OA
BRANCH  73  77
ATOM     77  CA  ASP A   2     -10.261 -24.356 -10.583  1.00  0.00     0.186 C 
BRANCH  77  78
ATOM     78  CB  ASP A   2     -11.047 -23.088 -10.957  1.00  0.00     0.147 C 
BRANCH  78  79
ATOM     79  CG  ASP A   2     -10.168 -22.091 -11.693  1.00  0.00     0.175 C 
ATOM     80  OD2 ASP A   2     -10.794 -21.256 -12.388  1.00  0.00    -0.648 OA
ATOM     81  OD1 ASP A   2      -9.003 -21.989 -11.290  1.00  0.00    -0.648 OA
ENDBRANCH  78  79
ENDBRANCH  77  78
BRANCH  77  82
ATOM     82  N   ASP A   2      -9.620 -24.862 -11.823  1.00  0.00    -0.345 N 
ATOM     83  H   ASP A   2      -9.710 -24.235 -12.608  1.00  0.00     0.163 HD
ATOM     84  C   TYR A   1      -8.673 -25.815 -11.839  1.00  0.00     0.249 C 
ATOM     85  O   TYR A   1      -8.442 -26.509 -10.878  1.00  0.00    -0.271 OA
BRANCH  84  86
ATOM     86  CA  TYR A   1      -8.096 -26.317 -13.146  1.00  0.00     0.278 C 
BRANCH  86  87
ATOM     87  N   TYR A   1      -8.515 -25.474 -14.279  1.00  0.00    -0.066 N 
ATOM     88  H2  TYR A   1      -9.302 -25.891 -14.753  1.00  0.00     0.275 HD
ATOM     89  H1  TYR A   1      -7.742 -25.381 -14.923  1.00  0.00     0.275 HD
ATOM     90  H3  TYR A   1      -8.778 -24.557 -13.935  1.00  0.00     0.275 HD
ENDBRANCH  86  87
BRANCH  86  91
ATOM     91  CB  TYR A   1      -6.593 -26.594 -13.126  1.00  0.00     0.081 C 
BRANCH  91  92
ATOM     92  CG  TYR A   1      -6.287 -28.073 -12.973  1.00  0.00    -0.056 A 
ATOM     93  CD2 TYR A   1      -6.560 -28.951 -14.048  1.00  0.00     0.010 A 
ATOM     94  CE2 TYR A   1      -6.309 -30.328 -13.912  1.00  0.00     0.037 A 
ATOM     95  CZ  TYR A   1      -5.772 -30.833 -12.707  1.00  0.00     0.065 A 
ATOM     96  CE1 TYR A   1      -5.466 -29.955 -11.650  1.00  0.00     0.037 A 
ATOM     97  CD1 TYR A   1      -5.719 -28.570 -11.777  1.00  0.00     0.010 A 
BRANCH  95  98
ATOM     98  OH  TYR A   1      -5.544 -32.159 -12.562  1.00  0.00    -0.361 OA
ATOM     99  HH  TYR A   1      -5.927 -32.498 -11.752  1.00  0.00     0.217 HD
ENDBRANCH  95  98
ENDBRANCH  91  92
ENDBRANCH  86  91
ENDBRANCH  84  86
ENDBRANCH  77  82
ENDBRANCH  73  77
ENDBRANCH  68  70
ENDBRANCH  65  66
BRANCH  65 100
ATOM    100  CB  GLU A   4      -8.894 -30.196 -10.559  1.00  0.00     0.045 C 
BRANCH 100 101
ATOM    101  CG  GLU A   4      -9.923 -31.001 -11.369  1.00  0.00     0.116 C 
BRANCH 101 102
ATOM    102  CD  GLU A   4     -10.571 -30.149 -12.473  1.00  0.00     0.172 C 
ATOM    103  OE2 GLU A   4      -9.782 -29.560 -13.245  1.00  0.00    -0.648 OA
ATOM    104  OE1 GLU A   4     -11.775 -29.827 -12.311  1.00  0.00    -0.648 OA
ENDBRANCH 101 102
ENDBRANCH 100 101
ENDBRANCH  65 100
ENDBRANCH  63  65
ENDBRANCH  60  61
BRANCH  60 105
ATOM    105  CB  TYR A   5      -7.202 -25.651  -7.456  1.00  0.00     0.073 C 
BRANCH 105 106
ATOM    106  CG  TYR A   5      -6.048 -25.570  -8.450  1.00  0.00    -0.056 A 
ATOM    107  CD1 TYR A   5      -5.065 -26.587  -8.499  1.00  0.00     0.010 A 
ATOM    108  CE1 TYR A   5      -4.093 -26.580  -9.529  1.00  0.00     0.037 A 
ATOM    109  CZ  TYR A   5      -4.099 -25.557 -10.495  1.00  0.00     0.065 A 
ATOM    110  CE2 TYR A   5      -5.060 -24.526 -10.429  1.00  0.00     0.037 A 
ATOM    111  CD2 TYR A   5      -6.036 -24.537  -9.415  1.00  0.00     0.010 A 
BRANCH 109 112
ATOM    112  OH  TYR A   5      -3.188 -25.564 -11.495  1.00  0.00    -0.361 OA
ATOM    113  HH  TYR A   5      -2.333 -25.296 -11.151  1.00  0.00     0.217 HD
ENDBRANCH 109 112
ENDBRANCH 105 106
ENDBRANCH  60 105
ENDBRANCH   1  60
TORSDOF 38
ENDMDL
MODEL 5
REMARK VINA RESULT:      -5.3      3.144      8.132
REMARK WARNING: 32 MAX_TORS EXCEEDED!!!
REMARK  38 active torsions:
REMARK  status: ('A' for Active; 'I' for Inactive)
REMARK    1  A    between atoms: N_1  and  CA_2 
REMARK    2  A    between atoms: CA_2  and  CB_5 
REMARK    3  A    between atoms: CA_2  and  C_3 
REMARK       I    between atoms: C_3  and  N_17 
REMARK    4  A    between atoms: CB_5  and  CG_6 
REMARK    5  A    between atoms: CZ_10  and  OH_11 
REMARK    6  A    between atoms: N_17  and  CA_18 
REMARK    7  A    between atoms: CA_18  and  CB_21 
REMARK    8  A    between atoms: CA_18  and  C_19 
REMARK       I    between atoms: C_19  and  N_26 
REMARK    9  A    between atoms: CB_21  and  CG_22 
REMARK   10  A    between atoms: CA_27  and  C_28 
REMARK       I    between atoms: C_28  and  N_33 
REMARK   11  A    between atoms: N_33  and  CA_34 
REMARK   12  A    between atoms: CA_34  and  C_35 
REMARK   13  A    between atoms: CA_34  and  CB_37 
REMARK       I    between atoms: C_35  and  N_43 
REMARK   14  A    between atoms: CB_37  and  CG_38 
REMARK   15  A    between atoms: CG_38  and  CD_39 
REMARK   16  A    between atoms: N_43  and  CA_44 
REMARK   17  A    between atoms: CA_44  and  CB_47 
REMARK   18  A    between atoms: CA_44  and  C_45 
REMARK       I    between atoms: C_45  and  N_57 
REMARK   19  A    between atoms: CB_47  and  CG_48 
REMARK   20  A    between atoms: CZ_52  and  OH_53 
REMARK   21  A    between atoms: N_57  and  CA_58 
REMARK   22  A    between atoms: CA_58  and  CB_61 
REMARK   23  A    between atoms: CA_58  and  C_59 
REMARK       I    between atoms: C_59  and  N_74 
REMARK   24  A    between atoms: CB_61  and  CG_62 
REMARK   25  A    between atoms: CG_62  and  CD_63 
REMARK   26  A    between atoms: CD_63  and  NE_64 
REMARK       I    between atoms: NE_64  and  CZ_65 
REMARK       I    between atoms: CZ_65  and  NH2_66 
REMARK   27  A    between atoms: N_74  and  CA_75 
REMARK   28  A    between atoms: CA_75  and  CB_78 
REMARK   29  A    between atoms: CA_75  and  C_76 
REMARK       I    between atoms: C_76  and  N_85 
REMARK   30  A    between atoms: CB_78  and  CG_79 
REMARK       I    between atoms: CG_79  and  ND2_80 
REMARK   31  A    between atoms: N_85  and  CA_86 
REMARK   32  A    between atoms: CA_86  and  CB_89 
REMARK   33  A    between atoms: CA_86  and  C_87 
REMARK       I    between atoms: C_87  and  N_97 
REMARK   34  A    between atoms: CB_89  and  CG_90 
REMARK   35  A    between atoms: N_97  and  CA_98 
REMARK   36  A    between atoms: CA_98  and  C_99 
REMARK   37  A    between atoms: CA_98  and  CB_102 
REMARK   38  A    between atoms: CB_102  and  CG_103 
ROOT
ATOM      1  C   TYR A   5      -6.673  -8.122  -7.099  1.00  0.00     0.241 C 
ATOM      2  O   TYR A   5      -5.674  -8.615  -6.581  1.00  0.00    -0.271 OA
ATOM      3  N   ARG A   6      -7.834  -8.024  -6.427  1.00  0.00    -0.346 N 
ATOM      4  H   ARG A   6      -8.618  -7.590  -6.908  1.00  0.00     0.163 HD
ENDROOT
BRANCH   3   5
ATOM      5  CA  ARG A   6      -8.010  -8.451  -5.021  1.00  0.00     0.176 C 
BRANCH   5   6
ATOM      6  CB  ARG A   6      -9.219  -7.703  -4.421  1.00  0.00     0.036 C 
BRANCH   6   7
ATOM      7  CG  ARG A   6      -9.099  -7.477  -2.896  1.00  0.00     0.023 C 
BRANCH   7   8
ATOM      8  CD  ARG A   6      -9.535  -6.072  -2.450  1.00  0.00     0.138 C 
BRANCH   8   9
ATOM      9  NE  ARG A   6      -8.407  -5.115  -2.446  1.00  0.00    -0.227 N 
ATOM     10  HE  ARG A   6      -7.685  -5.296  -1.771  1.00  0.00     0.177 HD
ATOM     11  CZ  ARG A   6      -8.183  -4.121  -3.290  1.00  0.00     0.665 C 
ATOM     12  NH2 ARG A   6      -7.071  -3.459  -3.213  1.00  0.00    -0.235 N 
ATOM     13  NH1 ARG A   6      -9.018  -3.762  -4.224  1.00  0.00    -0.235 N 
ATOM     14 1HH2 ARG A   6      -6.313  -3.886  -2.716  1.00  0.00     0.174 HD
ATOM     15 2HH2 ARG A   6      -6.789  -2.950  -4.035  1.00  0.00     0.174 HD
ATOM     16 1HH1 ARG A   6      -9.777  -4.378  -4.454  1.00  0.00     0.174 HD
ATOM     17 2HH1 ARG A   6      -8.766  -3.036  -4.869  1.00  0.00     0.174 HD
ENDBRANCH   8   9
ENDBRANCH   7   8
ENDBRANCH   6   7
ENDBRANCH   5   6
BRANCH   5  18
ATOM     18  C   ARG A   6      -8.151  -9.979  -4.843  1.00  0.00     0.241 C 
ATOM     19  N   ASN A   7      -8.603 -10.727  -5.859  1.00  0.00    -0.346 N 
ATOM     20  H   ASN A   7      -8.739 -10.287  -6.760  1.00  0.00     0.163 HD
ATOM     21  O   ARG A   6      -7.965 -10.460  -3.733  1.00  0.00    -0.271 OA
BRANCH  19  22
ATOM     22  CA  ASN A   7      -8.665 -12.200  -5.779  1.00  0.00     0.185 C 
BRANCH  22  23
ATOM     23  CB  ASN A   7     -10.122 -12.696  -5.839  1.00  0.00     0.137 C 
BRANCH  23  24
ATOM     24  CG  ASN A   7     -11.231 -11.670  -5.718  1.00  0.00     0.217 C 
ATOM     25  ND2 ASN A   7     -12.064 -11.629  -6.735  1.00  0.00    -0.370 N 
ATOM     26 2HD2 ASN A   7     -11.820 -12.099  -7.605  1.00  0.00     0.159 HD
ATOM     27 1HD2 ASN A   7     -12.851 -11.019  -6.669  1.00  0.00     0.159 HD
ATOM     28  OD1 ASN A   7     -11.516 -11.097  -4.671  1.00  0.00    -0.274 OA
ENDBRANCH  23  24
ENDBRANCH  22  23
BRANCH  22  29
ATOM     29  C   ASN A   7      -7.863 -12.911  -6.892  1.00  0.00     0.241 C 
ATOM     30  N   PHE A   8      -8.552 -13.501  -7.880  1.00  0.00    -0.346 N 
ATOM     31  H   PHE A   8      -9.565 -13.503  -7.822  1.00  0.00     0.163 HD
ATOM     32  O   ASN A   7      -6.645 -13.031  -6.770  1.00  0.00    -0.271 OA
BRANCH  30  33
ATOM     33  CA  PHE A   8      -7.936 -14.129  -9.059  1.00  0.00     0.180 C 
BRANCH  33  34
ATOM     34  CB  PHE A   8      -7.111 -13.044  -9.782  1.00  0.00     0.073 C 
BRANCH  34  35
ATOM     35  CG  PHE A   8      -7.708 -12.562 -11.093  1.00  0.00    -0.056 A 
ATOM     36  CD1 PHE A   8      -8.900 -13.133 -11.580  1.00  0.00     0.007 A 
ATOM     37  CE1 PHE A   8      -9.379 -12.781 -12.855  1.00  0.00     0.001 A 
ATOM     38  CZ  PHE A   8      -8.670 -11.857 -13.643  1.00  0.00     0.000 A 
ATOM     39  CE2 PHE A   8      -7.498 -11.262 -13.144  1.00  0.00     0.001 A 
ATOM     40  CD2 PHE A   8      -7.022 -11.609 -11.868  1.00  0.00     0.007 A 
ENDBRANCH  34  35
ENDBRANCH  33  34
BRANCH  33  41
ATOM     41  C   PHE A   8      -7.092 -15.380  -8.708  1.00  0.00     0.241 C 
ATOM     42  N   TRP A   9      -5.758 -15.248  -8.764  1.00  0.00    -0.344 N 
ATOM     43  H   TRP A   9      -5.395 -14.341  -9.015  1.00  0.00     0.163 HD
ATOM     44  O   PHE A   8      -7.661 -16.442  -8.445  1.00  0.00    -0.271 OA
BRANCH  42  45
ATOM     45  CA  TRP A   9      -4.753 -16.305  -8.552  1.00  0.00     0.190 C 
BRANCH  45  46
ATOM     46  C   TRP A   9      -3.547 -15.895  -7.680  1.00  0.00     0.197 C 
ATOM     47  OXT TRP A   9      -3.453 -14.678  -7.373  1.00  0.00    -0.646 OA
ATOM     48  O   TRP A   9      -2.580 -16.686  -7.666  1.00  0.00    -0.646 OA
ENDBRANCH  45  46
BRANCH  45  49
ATOM     49  CB  TRP A   9      -4.295 -16.786  -9.938  1.00  0.00     0.077 C 
BRANCH  49  50
ATOM     50  CG  TRP A   9      -4.175 -15.695 -10.952  1.00  0.00    -0.028 A 
ATOM     51  CD1 TRP A   9      -3.059 -14.960 -11.135  1.00  0.00     0.096 A 
ATOM     52  NE1 TRP A   9      -3.203 -14.154 -12.244  1.00  0.00    -0.365 N 
ATOM     53  HE1 TRP A   9      -2.422 -13.681 -12.664  1.00  0.00     0.165 HD
ATOM     54  CE2 TRP A   9      -4.408 -14.381 -12.872  1.00  0.00     0.042 A 
ATOM     55  CD2 TRP A   9      -5.057 -15.364 -12.067  1.00  0.00    -0.002 A 
ATOM     56  CZ2 TRP A   9      -4.961 -13.892 -14.063  1.00  0.00     0.030 A 
ATOM     57  CE3 TRP A   9      -6.303 -15.846 -12.529  1.00  0.00     0.014 A 
ATOM     58  CZ3 TRP A   9      -6.861 -15.376 -13.735  1.00  0.00     0.001 A 
ATOM     59  CH2 TRP A   9      -6.195 -14.401 -14.500  1.00  0.00     0.002 A 
ENDBRANCH  49  50
ENDBRANCH  45  49
ENDBRANCH  42  45
ENDBRANCH  33  41
ENDBRANCH  30  33
ENDBRANCH  22  29
ENDBRANCH  19  22
ENDBRANCH   5  18
ENDBRANCH   3   5
BRANCH   1  60
ATOM     60  CA  TYR A   5      -6.676  -7.883  -8.620  1.00  0.00     0.180 C 
BRANCH  60  61
ATOM     61  N   TYR A   5      -8.007  -8.070  -9.208  1.00  0.00    -0.346 N 
ATOM     62  H   TYR A   5      -8.518  -7.254  -9.511  1.00  0.00     0.163 HD
ATOM     63  C   GLU A   4      -8.614  -9.268  -9.259  1.00  0.00     0.241 C 
ATOM     64  O   GLU A   4      -8.109 -10.254  -8.731  1.00  0.00    -0.271 OA
BRANCH  63  65
ATOM     65  CA  GLU A   4     -10.084  -9.300  -9.699  1.00  0.00     0.177 C 
BRANCH  65  66
ATOM     66  N   GLU A   4     -10.777  -8.051  -9.338  1.00  0.00    -0.346 N 
ATOM     67  H   GLU A   4     -10.616  -7.252  -9.939  1.00  0.00     0.163 HD
ATOM     68  C   PRO A   3     -11.352  -7.806  -8.156  1.00  0.00     0.241 C 
ATOM     69  O   PRO A   3     -11.410  -8.633  -7.263  1.00  0.00    -0.271 OA
BRANCH  68  70
ATOM     70  CA  PRO A   3     -11.989  -6.428  -7.928  1.00  0.00     0.179 C 
ATOM     71  N   PRO A   3     -11.488  -5.322  -8.772  1.00  0.00    -0.337 N 
ATOM     72  CD  PRO A   3     -12.624  -4.665  -9.413  1.00  0.00     0.127 C 
ATOM     73  C   ASP A   2     -10.205  -4.874  -8.719  1.00  0.00     0.243 C 
ATOM     74  CG  PRO A   3     -13.845  -5.064  -8.585  1.00  0.00     0.022 C 
ATOM     75  CB  PRO A   3     -13.503  -6.493  -8.176  1.00  0.00     0.037 C 
ATOM     76  O   ASP A   2      -9.379  -5.549  -8.099  1.00  0.00    -0.271 OA
BRANCH  73  77
ATOM     77  CA  ASP A   2      -9.639  -3.847  -9.761  1.00  0.00     0.186 C 
BRANCH  77  78
ATOM     78  CB  ASP A   2      -8.457  -4.359 -10.601  1.00  0.00     0.147 C 
BRANCH  78  79
ATOM     79  CG  ASP A   2      -8.522  -3.831 -12.025  1.00  0.00     0.175 C 
ATOM     80  OD2 ASP A   2      -7.587  -4.214 -12.767  1.00  0.00    -0.648 OA
ATOM     81  OD1 ASP A   2      -9.613  -3.375 -12.388  1.00  0.00    -0.648 OA
ENDBRANCH  78  79
ENDBRANCH  77  78
BRANCH  77  82
ATOM     82  N   ASP A   2      -9.275  -2.497  -9.261  1.00  0.00    -0.345 N 
ATOM     83  H   ASP A   2      -8.320  -2.428  -8.945  1.00  0.00     0.163 HD
ATOM     84  C   TYR A   1      -9.956  -1.379  -9.564  1.00  0.00     0.249 C 
ATOM     85  O   TYR A   1     -11.057  -1.411 -10.062  1.00  0.00    -0.271 OA
BRANCH  84  86
ATOM     86  CA  TYR A   1      -9.555  -0.041  -8.979  1.00  0.00     0.278 C 
BRANCH  86  87
ATOM     87  N   TYR A   1     -10.034   1.076  -9.811  1.00  0.00    -0.066 N 
ATOM     88  H2  TYR A   1      -9.964   0.838 -10.790  1.00  0.00     0.275 HD
ATOM     89  H1  TYR A   1      -9.471   1.893  -9.621  1.00  0.00     0.275 HD
ATOM     90  H3  TYR A   1     -11.002   1.274  -9.582  1.00  0.00     0.275 HD
ENDBRANCH  86  87
BRANCH  86  91
ATOM     91  CB  TYR A   1      -9.871   0.138  -7.494  1.00  0.00     0.081 C 
BRANCH  91  92
ATOM     92  CG  TYR A   1      -9.105   1.297  -6.883  1.00  0.00    -0.056 A 
ATOM     93  CD2 TYR A   1      -9.812   2.291  -6.166  1.00  0.00     0.010 A 
ATOM     94  CE2 TYR A   1      -9.122   3.387  -5.617  1.00  0.00     0.037 A 
ATOM     95  CZ  TYR A   1      -7.722   3.489  -5.773  1.00  0.00     0.065 A 
ATOM     96  CE1 TYR A   1      -7.013   2.482  -6.455  1.00  0.00     0.037 A 
ATOM     97  CD1 TYR A   1      -7.699   1.380  -7.012  1.00  0.00     0.010 A 
BRANCH  95  98
ATOM     98  OH  TYR A   1      -7.053   4.549  -5.263  1.00  0.00    -0.361 OA
ATOM     99  HH  TYR A   1      -6.133   4.341  -5.093  1.00  0.00     0.217 HD
ENDBRANCH  95  98
ENDBRANCH  91  92
ENDBRANCH  86  91
ENDBRANCH  84  86
ENDBRANCH  77  82
ENDBRANCH  73  77
ENDBRANCH  68  70
ENDBRANCH  65  66
BRANCH  65 100
ATOM    100  CB  GLU A   4     -10.203  -9.520 -11.223  1.00  0.00     0.045 C 
BRANCH 100 101
ATOM    101  CG  GLU A   4     -11.533  -9.078 -11.856  1.00  0.00     0.116 C 
BRANCH 101 102
ATOM    102  CD  GLU A   4     -12.696  -9.990 -11.429  1.00  0.00     0.172 C 
ATOM    103  OE2 GLU A   4     -13.435  -9.547 -10.521  1.00  0.00    -0.648 OA
ATOM    104  OE1 GLU A   4     -12.616 -11.203 -11.748  1.00  0.00    -0.648 OA
ENDBRANCH 101 102
ENDBRANCH 100 101
ENDBRANCH  65 100
ENDBRANCH  63  65
ENDBRANCH  60  61
BRANCH  60 105
ATOM    105  CB  TYR A   5      -6.116  -6.494  -8.980  1.00  0.00     0.073 C 
BRANCH 105 106
ATOM    106  CG  TYR A   5      -5.094  -6.450 -10.111  1.00  0.00    -0.056 A 
ATOM    107  CD1 TYR A   5      -4.219  -5.346 -10.252  1.00  0.00     0.010 A 
ATOM    108  CE1 TYR A   5      -3.173  -5.391 -11.205  1.00  0.00     0.037 A 
ATOM    109  CZ  TYR A   5      -3.012  -6.527 -12.020  1.00  0.00     0.065 A 
ATOM    110  CE2 TYR A   5      -3.903  -7.616 -11.902  1.00  0.00     0.037 A 
ATOM    111  CD2 TYR A   5      -4.935  -7.581 -10.945  1.00  0.00     0.010 A 
BRANCH 109 112
ATOM    112  OH  TYR A   5      -1.997  -6.583 -12.912  1.00  0.00    -0.361 OA
ATOM    113  HH  TYR A   5      -2.116  -7.346 -13.483  1.00  0.00     0.217 HD
ENDBRANCH 109 112
ENDBRANCH 105 106
ENDBRANCH  60 105
ENDBRANCH   1  60
TORSDOF 38
ENDMDL
MODEL 6
REMARK VINA RESULT:      -5.2     10.645     17.700
REMARK WARNING: 32 MAX_TORS EXCEEDED!!!
REMARK  38 active torsions:
REMARK  status: ('A' for Active; 'I' for Inactive)
REMARK    1  A    between atoms: N_1  and  CA_2 
REMARK    2  A    between atoms: CA_2  and  CB_5 
REMARK    3  A    between atoms: CA_2  and  C_3 
REMARK       I    between atoms: C_3  and  N_17 
REMARK    4  A    between atoms: CB_5  and  CG_6 
REMARK    5  A    between atoms: CZ_10  and  OH_11 
REMARK    6  A    between atoms: N_17  and  CA_18 
REMARK    7  A    between atoms: CA_18  and  CB_21 
REMARK    8  A    between atoms: CA_18  and  C_19 
REMARK       I    between atoms: C_19  and  N_26 
REMARK    9  A    between atoms: CB_21  and  CG_22 
REMARK   10  A    between atoms: CA_27  and  C_28 
REMARK       I    between atoms: C_28  and  N_33 
REMARK   11  A    between atoms: N_33  and  CA_34 
REMARK   12  A    between atoms: CA_34  and  C_35 
REMARK   13  A    between atoms: CA_34  and  CB_37 
REMARK       I    between atoms: C_35  and  N_43 
REMARK   14  A    between atoms: CB_37  and  CG_38 
REMARK   15  A    between atoms: CG_38  and  CD_39 
REMARK   16  A    between atoms: N_43  and  CA_44 
REMARK   17  A    between atoms: CA_44  and  CB_47 
REMARK   18  A    between atoms: CA_44  and  C_45 
REMARK       I    between atoms: C_45  and  N_57 
REMARK   19  A    between atoms: CB_47  and  CG_48 
REMARK   20  A    between atoms: CZ_52  and  OH_53 
REMARK   21  A    between atoms: N_57  and  CA_58 
REMARK   22  A    between atoms: CA_58  and  CB_61 
REMARK   23  A    between atoms: CA_58  and  C_59 
REMARK       I    between atoms: C_59  and  N_74 
REMARK   24  A    between atoms: CB_61  and  CG_62 
REMARK   25  A    between atoms: CG_62  and  CD_63 
REMARK   26  A    between atoms: CD_63  and  NE_64 
REMARK       I    between atoms: NE_64  and  CZ_65 
REMARK       I    between atoms: CZ_65  and  NH2_66 
REMARK   27  A    between atoms: N_74  and  CA_75 
REMARK   28  A    between atoms: CA_75  and  CB_78 
REMARK   29  A    between atoms: CA_75  and  C_76 
REMARK       I    between atoms: C_76  and  N_85 
REMARK   30  A    between atoms: CB_78  and  CG_79 
REMARK       I    between atoms: CG_79  and  ND2_80 
REMARK   31  A    between atoms: N_85  and  CA_86 
REMARK   32  A    between atoms: CA_86  and  CB_89 
REMARK   33  A    between atoms: CA_86  and  C_87 
REMARK       I    between atoms: C_87  and  N_97 
REMARK   34  A    between atoms: CB_89  and  CG_90 
REMARK   35  A    between atoms: N_97  and  CA_98 
REMARK   36  A    between atoms: CA_98  and  C_99 
REMARK   37  A    between atoms: CA_98  and  CB_102 
REMARK   38  A    between atoms: CB_102  and  CG_103 
ROOT
ATOM      1  C   TYR A   5      -8.566 -25.998  -5.948  1.00  0.00     0.241 C 
ATOM      2  O   TYR A   5      -9.639 -25.648  -5.463  1.00  0.00    -0.271 OA
ATOM      3  N   ARG A   6      -8.042 -27.209  -5.687  1.00  0.00    -0.346 N 
ATOM      4  H   ARG A   6      -7.160 -27.443  -6.134  1.00  0.00     0.163 HD
ENDROOT
BRANCH   3   5
ATOM      5  CA  ARG A   6      -8.705 -28.229  -4.844  1.00  0.00     0.176 C 
BRANCH   5   6
ATOM      6  CB  ARG A   6      -7.874 -28.433  -3.561  1.00  0.00     0.036 C 
BRANCH   6   7
ATOM      7  CG  ARG A   6      -6.877 -27.282  -3.292  1.00  0.00     0.023 C 
BRANCH   7   8
ATOM      8  CD  ARG A   6      -7.416 -26.221  -2.319  1.00  0.00     0.138 C 
BRANCH   8   9
ATOM      9  NE  ARG A   6      -7.278 -26.641  -0.907  1.00  0.00    -0.227 N 
ATOM     10  HE  ARG A   6      -8.036 -27.186  -0.539  1.00  0.00     0.177 HD
ATOM     11  CZ  ARG A   6      -6.233 -26.479  -0.111  1.00  0.00     0.665 C 
ATOM     12  NH2 ARG A   6      -6.237 -27.025   1.064  1.00  0.00    -0.235 N 
ATOM     13  NH1 ARG A   6      -5.169 -25.802  -0.441  1.00  0.00    -0.235 N 
ATOM     14 1HH2 ARG A   6      -6.890 -27.768   1.226  1.00  0.00     0.174 HD
ATOM     15 2HH2 ARG A   6      -5.342 -27.163   1.504  1.00  0.00     0.174 HD
ATOM     16 1HH1 ARG A   6      -5.036 -25.554  -1.405  1.00  0.00     0.174 HD
ATOM     17 2HH1 ARG A   6      -4.386 -25.763   0.185  1.00  0.00     0.174 HD
ENDBRANCH   8   9
ENDBRANCH   7   8
ENDBRANCH   6   7
ENDBRANCH   5   6
BRANCH   5  18
ATOM     18  C   ARG A   6     -10.180 -27.906  -4.512  1.00  0.00     0.241 C 
ATOM     19  N   ASN A   7     -10.490 -27.373  -3.322  1.00  0.00    -0.346 N 
ATOM     20  H   ASN A   7      -9.737 -27.093  -2.707  1.00  0.00     0.163 HD
ATOM     21  O   ARG A   6     -11.049 -28.260  -5.298  1.00  0.00    -0.271 OA
BRANCH  19  22
ATOM     22  CA  ASN A   7     -11.865 -26.954  -2.988  1.00  0.00     0.185 C 
BRANCH  22  23
ATOM     23  CB  ASN A   7     -12.503 -27.913  -1.963  1.00  0.00     0.137 C 
BRANCH  23  24
ATOM     24  CG  ASN A   7     -11.679 -28.318  -0.758  1.00  0.00     0.217 C 
ATOM     25  ND2 ASN A   7     -12.061 -27.784   0.382  1.00  0.00    -0.370 N 
ATOM     26 2HD2 ASN A   7     -12.709 -26.998   0.377  1.00  0.00     0.159 HD
ATOM     27 1HD2 ASN A   7     -11.593 -28.076   1.213  1.00  0.00     0.159 HD
ATOM     28  OD1 ASN A   7     -10.890 -29.259  -0.758  1.00  0.00    -0.274 OA
ENDBRANCH  23  24
ENDBRANCH  22  23
BRANCH  22  29
ATOM     29  C   ASN A   7     -11.952 -25.517  -2.428  1.00  0.00     0.241 C 
ATOM     30  N   PHE A   8     -10.951 -24.672  -2.716  1.00  0.00    -0.346 N 
ATOM     31  H   PHE A   8     -10.158 -25.030  -3.239  1.00  0.00     0.163 HD
ATOM     32  O   ASN A   7     -12.851 -25.234  -1.636  1.00  0.00    -0.271 OA
BRANCH  30  33
ATOM     33  CA  PHE A   8     -10.936 -23.249  -2.344  1.00  0.00     0.180 C 
BRANCH  33  34
ATOM     34  CB  PHE A   8      -9.458 -22.812  -2.249  1.00  0.00     0.073 C 
BRANCH  34  35
ATOM     35  CG  PHE A   8      -8.970 -22.535  -0.838  1.00  0.00    -0.056 A 
ATOM     36  CD1 PHE A   8      -9.708 -21.691   0.014  1.00  0.00     0.007 A 
ATOM     37  CE1 PHE A   8      -9.188 -21.330   1.270  1.00  0.00     0.001 A 
ATOM     38  CZ  PHE A   8      -7.931 -21.812   1.676  1.00  0.00     0.000 A 
ATOM     39  CE2 PHE A   8      -7.208 -22.681   0.840  1.00  0.00     0.001 A 
ATOM     40  CD2 PHE A   8      -7.730 -23.047  -0.412  1.00  0.00     0.007 A 
ENDBRANCH  34  35
ENDBRANCH  33  34
BRANCH  33  41
ATOM     41  C   PHE A   8     -11.756 -22.359  -3.312  1.00  0.00     0.241 C 
ATOM     42  N   TRP A   9     -11.848 -22.772  -4.586  1.00  0.00    -0.344 N 
ATOM     43  H   TRP A   9     -11.392 -23.640  -4.822  1.00  0.00     0.163 HD
ATOM     44  O   PHE A   8     -12.242 -21.303  -2.902  1.00  0.00    -0.271 OA
BRANCH  42  45
ATOM     45  CA  TRP A   9     -12.502 -22.065  -5.701  1.00  0.00     0.190 C 
BRANCH  45  46
ATOM     46  C   TRP A   9     -13.542 -22.897  -6.482  1.00  0.00     0.197 C 
ATOM     47  OXT TRP A   9     -14.159 -23.787  -5.841  1.00  0.00    -0.646 OA
ATOM     48  O   TRP A   9     -13.426 -22.898  -7.727  1.00  0.00    -0.646 OA
ENDBRANCH  45  46
BRANCH  45  49
ATOM     49  CB  TRP A   9     -11.392 -21.553  -6.632  1.00  0.00     0.077 C 
BRANCH  49  50
ATOM     50  CG  TRP A   9     -11.407 -20.073  -6.839  1.00  0.00    -0.028 A 
ATOM     51  CD1 TRP A   9     -10.702 -19.203  -6.087  1.00  0.00     0.096 A 
ATOM     52  NE1 TRP A   9     -10.792 -17.936  -6.624  1.00  0.00    -0.365 N 
ATOM     53  HE1 TRP A   9     -10.184 -17.190  -6.332  1.00  0.00     0.165 HD
ATOM     54  CE2 TRP A   9     -11.514 -17.942  -7.796  1.00  0.00     0.042 A 
ATOM     55  CD2 TRP A   9     -11.925 -19.298  -7.963  1.00  0.00    -0.002 A 
ATOM     56  CZ2 TRP A   9     -11.793 -16.945  -8.740  1.00  0.00     0.030 A 
ATOM     57  CE3 TRP A   9     -12.631 -19.610  -9.146  1.00  0.00     0.014 A 
ATOM     58  CZ3 TRP A   9     -12.902 -18.621 -10.112  1.00  0.00     0.001 A 
ATOM     59  CH2 TRP A   9     -12.488 -17.291  -9.912  1.00  0.00     0.002 A 
ENDBRANCH  49  50
ENDBRANCH  45  49
ENDBRANCH  42  45
ENDBRANCH  33  41
ENDBRANCH  30  33
ENDBRANCH  22  29
ENDBRANCH  19  22
ENDBRANCH   5  18
ENDBRANCH   3   5
BRANCH   1  60
ATOM     60  CA  TYR A   5      -7.678 -24.937  -6.622  1.00  0.00     0.180 C 
BRANCH  60  61
ATOM     61  N   TYR A   5      -7.323 -25.303  -7.998  1.00  0.00    -0.346 N 
ATOM     62  H   TYR A   5      -7.877 -24.926  -8.754  1.00  0.00     0.163 HD
ATOM     63  C   GLU A   4      -6.366 -26.201  -8.284  1.00  0.00     0.241 C 
ATOM     64  O   GLU A   4      -5.798 -26.825  -7.391  1.00  0.00    -0.271 OA
BRANCH  63  65
ATOM     65  CA  GLU A   4      -6.234 -26.659  -9.743  1.00  0.00     0.177 C 
BRANCH  65  66
ATOM     66  N   GLU A   4      -7.375 -27.502 -10.142  1.00  0.00    -0.346 N 
ATOM     67  H   GLU A   4      -8.270 -27.040 -10.239  1.00  0.00     0.163 HD
ATOM     68  C   PRO A   3      -7.391 -28.839 -10.105  1.00  0.00     0.241 C 
ATOM     69  O   PRO A   3      -6.421 -29.505  -9.784  1.00  0.00    -0.271 OA
BRANCH  68  70
ATOM     70  CA  PRO A   3      -8.682 -29.563 -10.510  1.00  0.00     0.179 C 
ATOM     71  N   PRO A   3      -9.945 -28.819 -10.313  1.00  0.00    -0.337 N 
ATOM     72  CD  PRO A   3     -10.697 -28.826 -11.565  1.00  0.00     0.127 C 
ATOM     73  C   ASP A   2     -10.396 -28.440  -9.088  1.00  0.00     0.243 C 
ATOM     74  CG  PRO A   3     -10.116 -29.979 -12.383  1.00  0.00     0.022 C 
ATOM     75  CB  PRO A   3      -8.641 -29.934 -12.000  1.00  0.00     0.037 C 
ATOM     76  O   ASP A   2      -9.625 -28.535  -8.129  1.00  0.00    -0.271 OA
BRANCH  73  77
ATOM     77  CA  ASP A   2     -11.623 -27.477  -8.915  1.00  0.00     0.186 C 
BRANCH  77  78
ATOM     78  CB  ASP A   2     -12.998 -28.165  -8.941  1.00  0.00     0.147 C 
BRANCH  78  79
ATOM     79  CG  ASP A   2     -14.124 -27.146  -8.986  1.00  0.00     0.175 C 
ATOM     80  OD2 ASP A   2     -14.164 -26.367  -8.005  1.00  0.00    -0.648 OA
ATOM     81  OD1 ASP A   2     -14.657 -26.971 -10.089  1.00  0.00    -0.648 OA
ENDBRANCH  78  79
ENDBRANCH  77  78
BRANCH  77  82
ATOM     82  N   ASP A   2     -11.699 -26.300  -9.818  1.00  0.00    -0.345 N 
ATOM     83  H   ASP A   2     -12.622 -26.137 -10.191  1.00  0.00     0.163 HD
ATOM     84  C   TYR A   1     -10.793 -25.308  -9.830  1.00  0.00     0.249 C 
ATOM     85  O   TYR A   1      -9.718 -25.411  -9.287  1.00  0.00    -0.271 OA
BRANCH  84  86
ATOM     86  CA  TYR A   1     -10.909 -24.160 -10.812  1.00  0.00     0.278 C 
BRANCH  86  87
ATOM     87  N   TYR A   1     -12.050 -24.344 -11.723  1.00  0.00    -0.066 N 
ATOM     88  H2  TYR A   1     -11.899 -23.835 -12.582  1.00  0.00     0.275 HD
ATOM     89  H1  TYR A   1     -12.889 -24.005 -11.273  1.00  0.00     0.275 HD
ATOM     90  H3  TYR A   1     -12.157 -25.331 -11.932  1.00  0.00     0.275 HD
ENDBRANCH  86  87
BRANCH  86  91
ATOM     91  CB  TYR A   1     -10.855 -22.767 -10.187  1.00  0.00     0.081 C 
BRANCH  91  92
ATOM     92  CG  TYR A   1      -9.503 -22.105 -10.380  1.00  0.00    -0.056 A 
ATOM     93  CD2 TYR A   1      -9.205 -20.920  -9.669  1.00  0.00     0.010 A 
ATOM     94  CE2 TYR A   1      -7.968 -20.278  -9.858  1.00  0.00     0.037 A 
ATOM     95  CZ  TYR A   1      -7.018 -20.824 -10.749  1.00  0.00     0.065 A 
ATOM     96  CE1 TYR A   1      -7.299 -22.024 -11.430  1.00  0.00     0.037 A 
ATOM     97  CD1 TYR A   1      -8.541 -22.673 -11.249  1.00  0.00     0.010 A 
BRANCH  95  98
ATOM     98  OH  TYR A   1      -5.832 -20.204 -10.949  1.00  0.00    -0.361 OA
ATOM     99  HH  TYR A   1      -5.223 -20.753 -11.445  1.00  0.00     0.217 HD
ENDBRANCH  95  98
ENDBRANCH  91  92
ENDBRANCH  86  91
ENDBRANCH  84  86
ENDBRANCH  77  82
ENDBRANCH  73  77
ENDBRANCH  68  70
ENDBRANCH  65  66
BRANCH  65 100
ATOM    100  CB  GLU A   4      -6.144 -25.448 -10.698  1.00  0.00     0.045 C 
BRANCH 100 101
ATOM    101  CG  GLU A   4      -4.722 -25.034 -11.111  1.00  0.00     0.116 C 
BRANCH 101 102
ATOM    102  CD  GLU A   4      -4.189 -23.883 -10.241  1.00  0.00     0.172 C 
ATOM    103  OE2 GLU A   4      -4.019 -22.789 -10.824  1.00  0.00    -0.648 OA
ATOM    104  OE1 GLU A   4      -3.646 -24.197  -9.152  1.00  0.00    -0.648 OA
ENDBRANCH 101 102
ENDBRANCH 100 101
ENDBRANCH  65 100
ENDBRANCH  63  65
ENDBRANCH  60  61
BRANCH  60 105
ATOM    105  CB  TYR A   5      -8.329 -23.541  -6.585  1.00  0.00     0.073 C 
BRANCH 105 106
ATOM    106  CG  TYR A   5      -7.386 -22.352  -6.736  1.00  0.00    -0.056 A 
ATOM    107  CD1 TYR A   5      -7.604 -21.160  -6.003  1.00  0.00     0.010 A 
ATOM    108  CE1 TYR A   5      -6.636 -20.127  -6.032  1.00  0.00     0.037 A 
ATOM    109  CZ  TYR A   5      -5.466 -20.281  -6.797  1.00  0.00     0.065 A 
ATOM    110  CE2 TYR A   5      -5.262 -21.456  -7.553  1.00  0.00     0.037 A 
ATOM    111  CD2 TYR A   5      -6.215 -22.491  -7.515  1.00  0.00     0.010 A 
BRANCH 109 112
ATOM    112  OH  TYR A   5      -4.527 -19.307  -6.804  1.00  0.00    -0.361 OA
ATOM    113  HH  TYR A   5      -3.745 -19.613  -6.340  1.00  0.00     0.217 HD
ENDBRANCH 109 112
ENDBRANCH 105 106
ENDBRANCH  60 105
ENDBRANCH   1  60
TORSDOF 38
ENDMDL
MODEL 7
REMARK VINA RESULT:      -5.2      6.049     15.340
REMARK WARNING: 32 MAX_TORS EXCEEDED!!!
REMARK  38 active torsions:
REMARK  status: ('A' for Active; 'I' for Inactive)
REMARK    1  A    between atoms: N_1  and  CA_2 
REMARK    2  A    between atoms: CA_2  and  CB_5 
REMARK    3  A    between atoms: CA_2  and  C_3 
REMARK       I    between atoms: C_3  and  N_17 
REMARK    4  A    between atoms: CB_5  and  CG_6 
REMARK    5  A    between atoms: CZ_10  and  OH_11 
REMARK    6  A    between atoms: N_17  and  CA_18 
REMARK    7  A    between atoms: CA_18  and  CB_21 
REMARK    8  A    between atoms: CA_18  and  C_19 
REMARK       I    between atoms: C_19  and  N_26 
REMARK    9  A    between atoms: CB_21  and  CG_22 
REMARK   10  A    between atoms: CA_27  and  C_28 
REMARK       I    between atoms: C_28  and  N_33 
REMARK   11  A    between atoms: N_33  and  CA_34 
REMARK   12  A    between atoms: CA_34  and  C_35 
REMARK   13  A    between atoms: CA_34  and  CB_37 
REMARK       I    between atoms: C_35  and  N_43 
REMARK   14  A    between atoms: CB_37  and  CG_38 
REMARK   15  A    between atoms: CG_38  and  CD_39 
REMARK   16  A    between atoms: N_43  and  CA_44 
REMARK   17  A    between atoms: CA_44  and  CB_47 
REMARK   18  A    between atoms: CA_44  and  C_45 
REMARK       I    between atoms: C_45  and  N_57 
REMARK   19  A    between atoms: CB_47  and  CG_48 
REMARK   20  A    between atoms: CZ_52  and  OH_53 
REMARK   21  A    between atoms: N_57  and  CA_58 
REMARK   22  A    between atoms: CA_58  and  CB_61 
REMARK   23  A    between atoms: CA_58  and  C_59 
REMARK       I    between atoms: C_59  and  N_74 
REMARK   24  A    between atoms: CB_61  and  CG_62 
REMARK   25  A    between atoms: CG_62  and  CD_63 
REMARK   26  A    between atoms: CD_63  and  NE_64 
REMARK       I    between atoms: NE_64  and  CZ_65 
REMARK       I    between atoms: CZ_65  and  NH2_66 
REMARK   27  A    between atoms: N_74  and  CA_75 
REMARK   28  A    between atoms: CA_75  and  CB_78 
REMARK   29  A    between atoms: CA_75  and  C_76 
REMARK       I    between atoms: C_76  and  N_85 
REMARK   30  A    between atoms: CB_78  and  CG_79 
REMARK       I    between atoms: CG_79  and  ND2_80 
REMARK   31  A    between atoms: N_85  and  CA_86 
REMARK   32  A    between atoms: CA_86  and  CB_89 
REMARK   33  A    between atoms: CA_86  and  C_87 
REMARK       I    between atoms: C_87  and  N_97 
REMARK   34  A    between atoms: CB_89  and  CG_90 
REMARK   35  A    between atoms: N_97  and  CA_98 
REMARK   36  A    between atoms: CA_98  and  C_99 
REMARK   37  A    between atoms: CA_98  and  CB_102 
REMARK   38  A    between atoms: CB_102  and  CG_103 
ROOT
ATOM      1  C   TYR A   5      -5.116 -20.378  -9.536  1.00  0.00     0.241 C 
ATOM      2  O   TYR A   5      -5.646 -19.370  -9.073  1.00  0.00    -0.271 OA
ATOM      3  N   ARG A   6      -4.367 -20.324 -10.651  1.00  0.00    -0.346 N 
ATOM      4  H   ARG A   6      -3.942 -21.191 -10.971  1.00  0.00     0.163 HD
ENDROOT
BRANCH   3   5
ATOM      5  CA  ARG A   6      -4.079 -19.076 -11.391  1.00  0.00     0.176 C 
BRANCH   5   6
ATOM      6  CB  ARG A   6      -5.280 -18.747 -12.301  1.00  0.00     0.036 C 
BRANCH   6   7
ATOM      7  CG  ARG A   6      -5.885 -19.994 -12.986  1.00  0.00     0.023 C 
BRANCH   7   8
ATOM      8  CD  ARG A   6      -7.421 -19.993 -13.013  1.00  0.00     0.138 C 
BRANCH   8   9
ATOM      9  NE  ARG A   6      -7.993 -21.086 -12.196  1.00  0.00    -0.227 N 
ATOM     10  HE  ARG A   6      -7.950 -22.002 -12.604  1.00  0.00     0.177 HD
ATOM     11  CZ  ARG A   6      -8.450 -21.018 -10.956  1.00  0.00     0.665 C 
ATOM     12  NH2 ARG A   6      -8.798 -22.107 -10.345  1.00  0.00    -0.235 N 
ATOM     13  NH1 ARG A   6      -8.565 -19.906 -10.286  1.00  0.00    -0.235 N 
ATOM     14 1HH2 ARG A   6      -8.457 -22.973 -10.715  1.00  0.00     0.174 HD
ATOM     15 2HH2 ARG A   6      -8.827 -22.074  -9.339  1.00  0.00     0.174 HD
ATOM     16 1HH1 ARG A   6      -8.108 -19.083 -10.637  1.00  0.00     0.174 HD
ATOM     17 2HH1 ARG A   6      -8.866 -19.927  -9.329  1.00  0.00     0.174 HD
ENDBRANCH   8   9
ENDBRANCH   7   8
ENDBRANCH   6   7
ENDBRANCH   5   6
BRANCH   5  18
ATOM     18  C   ARG A   6      -3.718 -17.878 -10.484  1.00  0.00     0.241 C 
ATOM     19  N   ASN A   7      -4.662 -16.983 -10.161  1.00  0.00    -0.346 N 
ATOM     20  H   ASN A   7      -5.619 -17.171 -10.430  1.00  0.00     0.163 HD
ATOM     21  O   ARG A   6      -2.545 -17.704 -10.179  1.00  0.00    -0.271 OA
BRANCH  19  22
ATOM     22  CA  ASN A   7      -4.401 -15.875  -9.220  1.00  0.00     0.185 C 
BRANCH  22  23
ATOM     23  CB  ASN A   7      -3.863 -14.636  -9.960  1.00  0.00     0.137 C 
BRANCH  23  24
ATOM     24  CG  ASN A   7      -4.196 -14.483 -11.431  1.00  0.00     0.217 C 
ATOM     25  ND2 ASN A   7      -3.157 -14.331 -12.223  1.00  0.00    -0.370 N 
ATOM     26 2HD2 ASN A   7      -2.247 -14.112 -11.823  1.00  0.00     0.159 HD
ATOM     27 1HD2 ASN A   7      -3.322 -14.299 -13.207  1.00  0.00     0.159 HD
ATOM     28  OD1 ASN A   7      -5.297 -14.738 -11.909  1.00  0.00    -0.274 OA
ENDBRANCH  23  24
ENDBRANCH  22  23
BRANCH  22  29
ATOM     29  C   ASN A   7      -5.643 -15.454  -8.404  1.00  0.00     0.241 C 
ATOM     30  N   PHE A   8      -5.497 -14.469  -7.506  1.00  0.00    -0.346 N 
ATOM     31  H   PHE A   8      -4.568 -14.086  -7.362  1.00  0.00     0.163 HD
ATOM     32  O   ASN A   7      -6.678 -16.113  -8.503  1.00  0.00    -0.271 OA
BRANCH  30  33
ATOM     33  CA  PHE A   8      -6.601 -13.888  -6.727  1.00  0.00     0.180 C 
BRANCH  33  34
ATOM     34  CB  PHE A   8      -6.303 -14.153  -5.235  1.00  0.00     0.073 C 
BRANCH  34  35
ATOM     35  CG  PHE A   8      -7.377 -14.941  -4.506  1.00  0.00    -0.056 A 
ATOM     36  CD1 PHE A   8      -8.151 -15.893  -5.198  1.00  0.00     0.007 A 
ATOM     37  CE1 PHE A   8      -9.231 -16.524  -4.555  1.00  0.00     0.001 A 
ATOM     38  CZ  PHE A   8      -9.537 -16.208  -3.220  1.00  0.00     0.000 A 
ATOM     39  CE2 PHE A   8      -8.745 -15.283  -2.517  1.00  0.00     0.001 A 
ATOM     40  CD2 PHE A   8      -7.662 -14.656  -3.157  1.00  0.00     0.007 A 
ENDBRANCH  34  35
ENDBRANCH  33  34
BRANCH  33  41
ATOM     41  C   PHE A   8      -6.831 -12.386  -7.027  1.00  0.00     0.241 C 
ATOM     42  N   TRP A   9      -6.739 -11.537  -5.991  1.00  0.00    -0.344 N 
ATOM     43  H   TRP A   9      -6.510 -11.933  -5.092  1.00  0.00     0.163 HD
ATOM     44  O   PHE A   8      -7.134 -12.034  -8.170  1.00  0.00    -0.271 OA
BRANCH  42  45
ATOM     45  CA  TRP A   9      -6.990 -10.086  -6.009  1.00  0.00     0.190 C 
BRANCH  45  46
ATOM     46  C   TRP A   9      -6.223  -9.276  -4.941  1.00  0.00     0.197 C 
ATOM     47  OXT TRP A   9      -6.116  -8.037  -5.133  1.00  0.00    -0.646 OA
ATOM     48  O   TRP A   9      -5.459  -9.928  -4.197  1.00  0.00    -0.646 OA
ENDBRANCH  45  46
BRANCH  45  49
ATOM     49  CB  TRP A   9      -8.507  -9.882  -5.873  1.00  0.00     0.077 C 
BRANCH  49  50
ATOM     50  CG  TRP A   9      -9.114 -10.592  -4.707  1.00  0.00    -0.028 A 
ATOM     51  CD1 TRP A   9      -9.145 -10.089  -3.456  1.00  0.00     0.096 A 
ATOM     52  NE1 TRP A   9      -9.911 -10.897  -2.642  1.00  0.00    -0.365 N 
ATOM     53  HE1 TRP A   9     -10.221 -10.598  -1.734  1.00  0.00     0.165 HD
ATOM     54  CE2 TRP A   9     -10.469 -11.935  -3.355  1.00  0.00     0.042 A 
ATOM     55  CD2 TRP A   9      -9.977 -11.769  -4.684  1.00  0.00    -0.002 A 
ATOM     56  CZ2 TRP A   9     -11.380 -12.941  -3.006  1.00  0.00     0.030 A 
ATOM     57  CE3 TRP A   9     -10.458 -12.670  -5.660  1.00  0.00     0.014 A 
ATOM     58  CZ3 TRP A   9     -11.389 -13.674  -5.325  1.00  0.00     0.001 A 
ATOM     59  CH2 TRP A   9     -11.849 -13.813  -4.002  1.00  0.00     0.002 A 
ENDBRANCH  49  50
ENDBRANCH  45  49
ENDBRANCH  42  45
ENDBRANCH  33  41
ENDBRANCH  30  33
ENDBRANCH  22  29
ENDBRANCH  19  22
ENDBRANCH   5  18
ENDBRANCH   3   5
BRANCH   1  60
ATOM     60  CA  TYR A   5      -5.552 -21.754  -9.002  1.00  0.00     0.180 C 
BRANCH  60  61
ATOM     61  N   TYR A   5      -4.693 -22.837  -9.494  1.00  0.00    -0.346 N 
ATOM     62  H   TYR A   5      -3.838 -23.037  -8.996  1.00  0.00     0.163 HD
ATOM     63  C   GLU A   4      -4.945 -23.498 -10.637  1.00  0.00     0.241 C 
ATOM     64  O   GLU A   4      -5.869 -23.160 -11.371  1.00  0.00    -0.271 OA
BRANCH  63  65
ATOM     65  CA  GLU A   4      -3.864 -24.457 -11.155  1.00  0.00     0.177 C 
BRANCH  65  66
ATOM     66  N   GLU A   4      -4.332 -25.854 -11.124  1.00  0.00    -0.346 N 
ATOM     67  H   GLU A   4      -4.954 -26.141 -11.869  1.00  0.00     0.163 HD
ATOM     68  C   PRO A   3      -4.243 -26.671 -10.070  1.00  0.00     0.241 C 
ATOM     69  O   PRO A   3      -3.702 -26.349  -9.025  1.00  0.00    -0.271 OA
BRANCH  68  70
ATOM     70  CA  PRO A   3      -4.827 -28.085 -10.192  1.00  0.00     0.179 C 
ATOM     71  N   PRO A   3      -6.300 -28.198 -10.119  1.00  0.00    -0.337 N 
ATOM     72  CD  PRO A   3      -6.773 -28.951 -11.277  1.00  0.00     0.127 C 
ATOM     73  C   ASP A   2      -7.012 -27.867  -9.009  1.00  0.00     0.243 C 
ATOM     74  CG  PRO A   3      -5.552 -29.705 -11.800  1.00  0.00     0.022 C 
ATOM     75  CB  PRO A   3      -4.423 -28.714 -11.534  1.00  0.00     0.037 C 
ATOM     76  O   ASP A   2      -6.433 -27.254  -8.108  1.00  0.00    -0.271 OA
BRANCH  73  77
ATOM     77  CA  ASP A   2      -8.580 -27.796  -9.018  1.00  0.00     0.186 C 
BRANCH  77  78
ATOM     78  CB  ASP A   2      -9.190 -27.062 -10.223  1.00  0.00     0.147 C 
BRANCH  78  79
ATOM     79  CG  ASP A   2      -9.286 -25.567  -9.968  1.00  0.00     0.175 C 
ATOM     80  OD2 ASP A   2      -8.186 -24.967  -9.954  1.00  0.00    -0.648 OA
ATOM     81  OD1 ASP A   2     -10.402 -25.058 -10.128  1.00  0.00    -0.648 OA
ENDBRANCH  78  79
ENDBRANCH  77  78
BRANCH  77  82
ATOM     82  N   ASP A   2      -9.246 -27.274  -7.798  1.00  0.00    -0.345 N 
ATOM     83  H   ASP A   2      -9.593 -26.332  -7.899  1.00  0.00     0.163 HD
ATOM     84  C   TYR A   1      -9.726 -28.056  -6.815  1.00  0.00     0.249 C 
ATOM     85  O   TYR A   1      -9.437 -29.226  -6.725  1.00  0.00    -0.271 OA
BRANCH  84  86
ATOM     86  CA  TYR A   1     -10.352 -27.453  -5.576  1.00  0.00     0.278 C 
BRANCH  86  87
ATOM     87  N   TYR A   1     -11.757 -27.079  -5.810  1.00  0.00    -0.066 N 
ATOM     88  H2  TYR A   1     -11.853 -26.622  -6.705  1.00  0.00     0.275 HD
ATOM     89  H1  TYR A   1     -12.057 -26.451  -5.077  1.00  0.00     0.275 HD
ATOM     90  H3  TYR A   1     -12.333 -27.913  -5.795  1.00  0.00     0.275 HD
ENDBRANCH  86  87
BRANCH  86  91
ATOM     91  CB  TYR A   1     -10.150 -28.256  -4.292  1.00  0.00     0.081 C 
BRANCH  91  92
ATOM     92  CG  TYR A   1      -8.902 -27.827  -3.540  1.00  0.00    -0.056 A 
ATOM     93  CD2 TYR A   1      -8.563 -26.456  -3.489  1.00  0.00     0.010 A 
ATOM     94  CE2 TYR A   1      -7.395 -26.044  -2.821  1.00  0.00     0.037 A 
ATOM     95  CZ  TYR A   1      -6.568 -27.001  -2.191  1.00  0.00     0.065 A 
ATOM     96  CE1 TYR A   1      -6.924 -28.363  -2.211  1.00  0.00     0.037 A 
ATOM     97  CD1 TYR A   1      -8.093 -28.784  -2.883  1.00  0.00     0.010 A 
BRANCH  95  98
ATOM     98  OH  TYR A   1      -5.434 -26.616  -1.562  1.00  0.00    -0.361 OA
ATOM     99  HH  TYR A   1      -5.620 -26.193  -0.722  1.00  0.00     0.217 HD
ENDBRANCH  95  98
ENDBRANCH  91  92
ENDBRANCH  86  91
ENDBRANCH  84  86
ENDBRANCH  77  82
ENDBRANCH  73  77
ENDBRANCH  68  70
ENDBRANCH  65  66
BRANCH  65 100
ATOM    100  CB  GLU A   4      -3.447 -24.096 -12.597  1.00  0.00     0.045 C 
BRANCH 100 101
ATOM    101  CG  GLU A   4      -2.313 -23.065 -12.721  1.00  0.00     0.116 C 
BRANCH 101 102
ATOM    102  CD  GLU A   4      -0.934 -23.705 -12.487  1.00  0.00     0.172 C 
ATOM    103  OE2 GLU A   4      -0.824 -24.906 -12.819  1.00  0.00    -0.648 OA
ATOM    104  OE1 GLU A   4      -0.162 -23.118 -11.688  1.00  0.00    -0.648 OA
ENDBRANCH 101 102
ENDBRANCH 100 101
ENDBRANCH  65 100
ENDBRANCH  63  65
ENDBRANCH  60  61
BRANCH  60 105
ATOM    105  CB  TYR A   5      -5.618 -21.774  -7.463  1.00  0.00     0.073 C 
BRANCH 105 106
ATOM    106  CG  TYR A   5      -6.927 -22.261  -6.849  1.00  0.00    -0.056 A 
ATOM    107  CD1 TYR A   5      -7.346 -23.603  -7.012  1.00  0.00     0.010 A 
ATOM    108  CE1 TYR A   5      -8.478 -24.080  -6.307  1.00  0.00     0.037 A 
ATOM    109  CZ  TYR A   5      -9.190 -23.217  -5.455  1.00  0.00     0.065 A 
ATOM    110  CE2 TYR A   5      -8.792 -21.870  -5.315  1.00  0.00     0.037 A 
ATOM    111  CD2 TYR A   5      -7.659 -21.396  -6.004  1.00  0.00     0.010 A 
BRANCH 109 112
ATOM    112  OH  TYR A   5     -10.255 -23.678  -4.759  1.00  0.00    -0.361 OA
ATOM    113  HH  TYR A   5      -9.951 -24.094  -3.950  1.00  0.00     0.217 HD
ENDBRANCH 109 112
ENDBRANCH 105 106
ENDBRANCH  60 105
ENDBRANCH   1  60
TORSDOF 38
ENDMDL
MODEL 8
REMARK VINA RESULT:      -5.2     16.112     23.485
REMARK WARNING: 32 MAX_TORS EXCEEDED!!!
REMARK  38 active torsions:
REMARK  status: ('A' for Active; 'I' for Inactive)
REMARK    1  A    between atoms: N_1  and  CA_2 
REMARK    2  A    between atoms: CA_2  and  CB_5 
REMARK    3  A    between atoms: CA_2  and  C_3 
REMARK       I    between atoms: C_3  and  N_17 
REMARK    4  A    between atoms: CB_5  and  CG_6 
REMARK    5  A    between atoms: CZ_10  and  OH_11 
REMARK    6  A    between atoms: N_17  and  CA_18 
REMARK    7  A    between atoms: CA_18  and  CB_21 
REMARK    8  A    between atoms: CA_18  and  C_19 
REMARK       I    between atoms: C_19  and  N_26 
REMARK    9  A    between atoms: CB_21  and  CG_22 
REMARK   10  A    between atoms: CA_27  and  C_28 
REMARK       I    between atoms: C_28  and  N_33 
REMARK   11  A    between atoms: N_33  and  CA_34 
REMARK   12  A    between atoms: CA_34  and  C_35 
REMARK   13  A    between atoms: CA_34  and  CB_37 
REMARK       I    between atoms: C_35  and  N_43 
REMARK   14  A    between atoms: CB_37  and  CG_38 
REMARK   15  A    between atoms: CG_38  and  CD_39 
REMARK   16  A    between atoms: N_43  and  CA_44 
REMARK   17  A    between atoms: CA_44  and  CB_47 
REMARK   18  A    between atoms: CA_44  and  C_45 
REMARK       I    between atoms: C_45  and  N_57 
REMARK   19  A    between atoms: CB_47  and  CG_48 
REMARK   20  A    between atoms: CZ_52  and  OH_53 
REMARK   21  A    between atoms: N_57  and  CA_58 
REMARK   22  A    between atoms: CA_58  and  CB_61 
REMARK   23  A    between atoms: CA_58  and  C_59 
REMARK       I    between atoms: C_59  and  N_74 
REMARK   24  A    between atoms: CB_61  and  CG_62 
REMARK   25  A    between atoms: CG_62  and  CD_63 
REMARK   26  A    between atoms: CD_63  and  NE_64 
REMARK       I    between atoms: NE_64  and  CZ_65 
REMARK       I    between atoms: CZ_65  and  NH2_66 
REMARK   27  A    between atoms: N_74  and  CA_75 
REMARK   28  A    between atoms: CA_75  and  CB_78 
REMARK   29  A    between atoms: CA_75  and  C_76 
REMARK       I    between atoms: C_76  and  N_85 
REMARK   30  A    between atoms: CB_78  and  CG_79 
REMARK       I    between atoms: CG_79  and  ND2_80 
REMARK   31  A    between atoms: N_85  and  CA_86 
REMARK   32  A    between atoms: CA_86  and  CB_89 
REMARK   33  A    between atoms: CA_86  and  C_87 
REMARK       I    between atoms: C_87  and  N_97 
REMARK   34  A    between atoms: CB_89  and  CG_90 
REMARK   35  A    between atoms: N_97  and  CA_98 
REMARK   36  A    between atoms: CA_98  and  C_99 
REMARK   37  A    between atoms: CA_98  and  CB_102 
REMARK   38  A    between atoms: CB_102  and  CG_103 
ROOT
ATOM      1  C   TYR A   5      13.051 -12.268 -13.806  1.00  0.00     0.241 C 
ATOM      2  O   TYR A   5      12.720 -12.999 -14.736  1.00  0.00    -0.271 OA
ATOM      3  N   ARG A   6      12.190 -11.385 -13.270  1.00  0.00    -0.346 N 
ATOM      4  H   ARG A   6      12.521 -10.822 -12.491  1.00  0.00     0.163 HD
ENDROOT
BRANCH   3   5
ATOM      5  CA  ARG A   6      10.783 -11.237 -13.706  1.00  0.00     0.176 C 
BRANCH   5   6
ATOM      6  CB  ARG A   6       9.855 -11.676 -12.555  1.00  0.00     0.036 C 
BRANCH   6   7
ATOM      7  CG  ARG A   6      10.521 -11.573 -11.163  1.00  0.00     0.023 C 
BRANCH   7   8
ATOM      8  CD  ARG A   6      10.228 -10.249 -10.441  1.00  0.00     0.138 C 
BRANCH   8   9
ATOM      9  NE  ARG A   6      11.340  -9.841  -9.554  1.00  0.00    -0.227 N 
ATOM     10  HE  ARG A   6      11.414 -10.346  -8.689  1.00  0.00     0.177 HD
ATOM     11  CZ  ARG A   6      12.306  -8.974  -9.810  1.00  0.00     0.665 C 
ATOM     12  NH2 ARG A   6      13.277  -8.833  -8.962  1.00  0.00    -0.235 N 
ATOM     13  NH1 ARG A   6      12.357  -8.244 -10.889  1.00  0.00    -0.235 N 
ATOM     14 1HH2 ARG A   6      13.414  -9.565  -8.292  1.00  0.00     0.174 HD
ATOM     15 2HH2 ARG A   6      14.131  -8.433  -9.313  1.00  0.00     0.174 HD
ATOM     16 1HH1 ARG A   6      11.755  -8.479 -11.658  1.00  0.00     0.174 HD
ATOM     17 2HH1 ARG A   6      13.146  -7.646 -11.051  1.00  0.00     0.174 HD
ENDBRANCH   8   9
ENDBRANCH   7   8
ENDBRANCH   6   7
ENDBRANCH   5   6
BRANCH   5  18
ATOM     18  C   ARG A   6      10.427  -9.818 -14.204  1.00  0.00     0.241 C 
ATOM     19  N   ASN A   7       9.458  -9.658 -15.116  1.00  0.00    -0.346 N 
ATOM     20  H   ASN A   7       8.905 -10.464 -15.379  1.00  0.00     0.163 HD
ATOM     21  O   ARG A   6      11.125  -8.878 -13.845  1.00  0.00    -0.271 OA
BRANCH  19  22
ATOM     22  CA  ASN A   7       9.009  -8.322 -15.553  1.00  0.00     0.185 C 
BRANCH  22  23
ATOM     23  CB  ASN A   7       8.400  -7.530 -14.380  1.00  0.00     0.137 C 
BRANCH  23  24
ATOM     24  CG  ASN A   7       7.264  -8.166 -13.605  1.00  0.00     0.217 C 
ATOM     25  ND2 ASN A   7       6.123  -7.513 -13.653  1.00  0.00    -0.370 N 
ATOM     26 2HD2 ASN A   7       6.107  -6.555 -13.999  1.00  0.00     0.159 HD
ATOM     27 1HD2 ASN A   7       5.329  -7.929 -13.216  1.00  0.00     0.159 HD
ATOM     28  OD1 ASN A   7       7.291  -9.317 -13.178  1.00  0.00    -0.274 OA
ENDBRANCH  23  24
ENDBRANCH  22  23
BRANCH  22  29
ATOM     29  C   ASN A   7      10.134  -7.470 -16.183  1.00  0.00     0.241 C 
ATOM     30  N   PHE A   8      10.571  -6.405 -15.495  1.00  0.00    -0.346 N 
ATOM     31  H   PHE A   8      10.106  -6.175 -14.623  1.00  0.00     0.163 HD
ATOM     32  O   ASN A   7      10.494  -7.708 -17.335  1.00  0.00    -0.271 OA
BRANCH  30  33
ATOM     33  CA  PHE A   8      11.699  -5.557 -15.910  1.00  0.00     0.180 C 
BRANCH  33  34
ATOM     34  CB  PHE A   8      11.121  -4.184 -16.313  1.00  0.00     0.073 C 
BRANCH  34  35
ATOM     35  CG  PHE A   8      11.524  -3.710 -17.699  1.00  0.00    -0.056 A 
ATOM     36  CD1 PHE A   8      11.565  -2.333 -17.992  1.00  0.00     0.007 A 
ATOM     37  CE1 PHE A   8      11.808  -1.901 -19.308  1.00  0.00     0.001 A 
ATOM     38  CZ  PHE A   8      12.012  -2.843 -20.332  1.00  0.00     0.000 A 
ATOM     39  CE2 PHE A   8      12.004  -4.217 -20.034  1.00  0.00     0.001 A 
ATOM     40  CD2 PHE A   8      11.767  -4.649 -18.718  1.00  0.00     0.007 A 
ENDBRANCH  34  35
ENDBRANCH  33  34
BRANCH  33  41
ATOM     41  C   PHE A   8      12.802  -5.441 -14.828  1.00  0.00     0.241 C 
ATOM     42  N   TRP A   9      14.060  -5.258 -15.259  1.00  0.00    -0.344 N 
ATOM     43  H   TRP A   9      14.199  -5.192 -16.256  1.00  0.00     0.163 HD
ATOM     44  O   PHE A   8      12.502  -5.568 -13.639  1.00  0.00    -0.271 OA
BRANCH  42  45
ATOM     45  CA  TRP A   9      15.279  -5.196 -14.435  1.00  0.00     0.190 C 
BRANCH  45  46
ATOM     46  C   TRP A   9      16.235  -4.031 -14.768  1.00  0.00     0.197 C 
ATOM     47  OXT TRP A   9      15.942  -3.320 -15.765  1.00  0.00    -0.646 OA
ATOM     48  O   TRP A   9      17.386  -4.106 -14.288  1.00  0.00    -0.646 OA
ENDBRANCH  45  46
BRANCH  45  49
ATOM     49  CB  TRP A   9      15.992  -6.551 -14.569  1.00  0.00     0.077 C 
BRANCH  49  50
ATOM     50  CG  TRP A   9      15.911  -7.148 -15.937  1.00  0.00    -0.028 A 
ATOM     51  CD1 TRP A   9      16.820  -6.925 -16.908  1.00  0.00     0.096 A 
ATOM     52  NE1 TRP A   9      16.562  -7.739 -17.990  1.00  0.00    -0.365 N 
ATOM     53  HE1 TRP A   9      17.231  -7.869 -18.729  1.00  0.00     0.165 HD
ATOM     54  CE2 TRP A   9      15.502  -8.581 -17.738  1.00  0.00     0.042 A 
ATOM     55  CD2 TRP A   9      15.060  -8.227 -16.429  1.00  0.00    -0.002 A 
ATOM     56  CZ2 TRP A   9      14.934  -9.632 -18.471  1.00  0.00     0.030 A 
ATOM     57  CE3 TRP A   9      14.011  -8.998 -15.879  1.00  0.00     0.014 A 
ATOM     58  CZ3 TRP A   9      13.444 -10.070 -16.598  1.00  0.00     0.001 A 
ATOM     59  CH2 TRP A   9      13.901 -10.387 -17.891  1.00  0.00     0.002 A 
ENDBRANCH  49  50
ENDBRANCH  45  49
ENDBRANCH  42  45
ENDBRANCH  33  41
ENDBRANCH  30  33
ENDBRANCH  22  29
ENDBRANCH  19  22
ENDBRANCH   5  18
ENDBRANCH   3   5
BRANCH   1  60
ATOM     60  CA  TYR A   5      14.544 -12.157 -13.448  1.00  0.00     0.180 C 
BRANCH  60  61
ATOM     61  N   TYR A   5      14.812 -12.553 -12.061  1.00  0.00    -0.346 N 
ATOM     62  H   TYR A   5      14.839 -13.538 -11.839  1.00  0.00     0.163 HD
ATOM     63  C   GLU A   4      14.916 -11.662 -11.061  1.00  0.00     0.241 C 
ATOM     64  O   GLU A   4      14.703 -10.469 -11.254  1.00  0.00    -0.271 OA
BRANCH  63  65
ATOM     65  CA  GLU A   4      14.983 -12.208  -9.628  1.00  0.00     0.177 C 
BRANCH  65  66
ATOM     66  N   GLU A   4      14.118 -13.390  -9.467  1.00  0.00    -0.346 N 
ATOM     67  H   GLU A   4      14.337 -14.195 -10.040  1.00  0.00     0.163 HD
ATOM     68  C   PRO A   3      12.927 -13.393  -8.860  1.00  0.00     0.241 C 
ATOM     69  O   PRO A   3      12.456 -12.407  -8.318  1.00  0.00    -0.271 OA
BRANCH  68  70
ATOM     70  CA  PRO A   3      12.131 -14.705  -8.823  1.00  0.00     0.179 C 
ATOM     71  N   PRO A   3      12.556 -15.760  -9.768  1.00  0.00    -0.337 N 
ATOM     72  CD  PRO A   3      12.771 -17.000  -9.026  1.00  0.00     0.127 C 
ATOM     73  C   ASP A   2      12.488 -15.614 -11.118  1.00  0.00     0.243 C 
ATOM     74  CG  PRO A   3      12.016 -16.823  -7.710  1.00  0.00     0.022 C 
ATOM     75  CB  PRO A   3      12.209 -15.337  -7.425  1.00  0.00     0.037 C 
ATOM     76  O   ASP A   2      12.264 -14.488 -11.570  1.00  0.00    -0.271 OA
BRANCH  73  77
ATOM     77  CA  ASP A   2      13.133 -16.654 -12.101  1.00  0.00     0.186 C 
BRANCH  77  78
ATOM     78  CB  ASP A   2      13.881 -16.042 -13.296  1.00  0.00     0.147 C 
BRANCH  78  79
ATOM     79  CG  ASP A   2      13.654 -16.849 -14.563  1.00  0.00     0.175 C 
ATOM     80  OD2 ASP A   2      12.837 -16.341 -15.367  1.00  0.00    -0.648 OA
ATOM     81  OD1 ASP A   2      14.504 -17.710 -14.820  1.00  0.00    -0.648 OA
ENDBRANCH  78  79
ENDBRANCH  77  78
BRANCH  77  82
ATOM     82  N   ASP A   2      12.254 -17.727 -12.631  1.00  0.00    -0.345 N 
ATOM     83  H   ASP A   2      11.790 -17.480 -13.492  1.00  0.00     0.163 HD
ATOM     84  C   TYR A   1      12.358 -19.020 -12.281  1.00  0.00     0.249 C 
ATOM     85  O   TYR A   1      13.008 -19.378 -11.327  1.00  0.00    -0.271 OA
BRANCH  84  86
ATOM     86  CA  TYR A   1      11.396 -20.055 -12.827  1.00  0.00     0.278 C 
BRANCH  86  87
ATOM     87  N   TYR A   1      11.713 -21.402 -12.325  1.00  0.00    -0.066 N 
ATOM     88  H2  TYR A   1      12.694 -21.470 -12.098  1.00  0.00     0.275 HD
ATOM     89  H1  TYR A   1      11.483 -22.081 -13.037  1.00  0.00     0.275 HD
ATOM     90  H3  TYR A   1      11.162 -21.588 -11.493  1.00  0.00     0.275 HD
ENDBRANCH  86  87
BRANCH  86  91
ATOM     91  CB  TYR A   1       9.917 -19.695 -12.695  1.00  0.00     0.081 C 
BRANCH  91  92
ATOM     92  CG  TYR A   1       9.352 -20.083 -11.340  1.00  0.00    -0.056 A 
ATOM     93  CD2 TYR A   1       8.489 -21.199 -11.244  1.00  0.00     0.010 A 
ATOM     94  CE2 TYR A   1       7.935 -21.555 -10.002  1.00  0.00     0.037 A 
ATOM     95  CZ  TYR A   1       8.250 -20.805  -8.847  1.00  0.00     0.065 A 
ATOM     96  CE1 TYR A   1       9.138 -19.715  -8.935  1.00  0.00     0.037 A 
ATOM     97  CD1 TYR A   1       9.696 -19.349 -10.181  1.00  0.00     0.010 A 
BRANCH  95  98
ATOM     98  OH  TYR A   1       7.708 -21.129  -7.651  1.00  0.00    -0.361 OA
ATOM     99  HH  TYR A   1       8.110 -21.916  -7.280  1.00  0.00     0.217 HD
ENDBRANCH  95  98
ENDBRANCH  91  92
ENDBRANCH  86  91
ENDBRANCH  84  86
ENDBRANCH  77  82
ENDBRANCH  73  77
ENDBRANCH  68  70
ENDBRANCH  65  66
BRANCH  65 100
ATOM    100  CB  GLU A   4      16.431 -12.586  -9.245  1.00  0.00     0.045 C 
BRANCH 100 101
ATOM    101  CG  GLU A   4      17.440 -11.426  -9.244  1.00  0.00     0.116 C 
BRANCH 101 102
ATOM    102  CD  GLU A   4      17.006 -10.294  -8.297  1.00  0.00     0.172 C 
ATOM    103  OE2 GLU A   4      16.903  -9.158  -8.812  1.00  0.00    -0.648 OA
ATOM    104  OE1 GLU A   4      17.130 -10.504  -7.064  1.00  0.00    -0.648 OA
ENDBRANCH 101 102
ENDBRANCH 100 101
ENDBRANCH  65 100
ENDBRANCH  63  65
ENDBRANCH  60  61
BRANCH  60 105
ATOM    105  CB  TYR A   5      15.425 -12.963 -14.421  1.00  0.00     0.073 C 
BRANCH 105 106
ATOM    106  CG  TYR A   5      16.493 -12.177 -15.175  1.00  0.00    -0.056 A 
ATOM    107  CD1 TYR A   5      16.848 -12.528 -16.499  1.00  0.00     0.010 A 
ATOM    108  CE1 TYR A   5      17.722 -11.696 -17.240  1.00  0.00     0.037 A 
ATOM    109  CZ  TYR A   5      18.245 -10.528 -16.655  1.00  0.00     0.065 A 
ATOM    110  CE2 TYR A   5      17.916 -10.193 -15.324  1.00  0.00     0.037 A 
ATOM    111  CD2 TYR A   5      17.037 -11.010 -14.589  1.00  0.00     0.010 A 
BRANCH 109 112
ATOM    112  OH  TYR A   5      19.058  -9.717 -17.370  1.00  0.00    -0.361 OA
ATOM    113  HH  TYR A   5      18.591  -8.907 -17.587  1.00  0.00     0.217 HD
ENDBRANCH 109 112
ENDBRANCH 105 106
ENDBRANCH  60 105
ENDBRANCH   1  60
TORSDOF 38
ENDMDL
MODEL 9
REMARK VINA RESULT:      -5.2     24.369     29.538
REMARK WARNING: 32 MAX_TORS EXCEEDED!!!
REMARK  38 active torsions:
REMARK  status: ('A' for Active; 'I' for Inactive)
REMARK    1  A    between atoms: N_1  and  CA_2 
REMARK    2  A    between atoms: CA_2  and  CB_5 
REMARK    3  A    between atoms: CA_2  and  C_3 
REMARK       I    between atoms: C_3  and  N_17 
REMARK    4  A    between atoms: CB_5  and  CG_6 
REMARK    5  A    between atoms: CZ_10  and  OH_11 
REMARK    6  A    between atoms: N_17  and  CA_18 
REMARK    7  A    between atoms: CA_18  and  CB_21 
REMARK    8  A    between atoms: CA_18  and  C_19 
REMARK       I    between atoms: C_19  and  N_26 
REMARK    9  A    between atoms: CB_21  and  CG_22 
REMARK   10  A    between atoms: CA_27  and  C_28 
REMARK       I    between atoms: C_28  and  N_33 
REMARK   11  A    between atoms: N_33  and  CA_34 
REMARK   12  A    between atoms: CA_34  and  C_35 
REMARK   13  A    between atoms: CA_34  and  CB_37 
REMARK       I    between atoms: C_35  and  N_43 
REMARK   14  A    between atoms: CB_37  and  CG_38 
REMARK   15  A    between atoms: CG_38  and  CD_39 
REMARK   16  A    between atoms: N_43  and  CA_44 
REMARK   17  A    between atoms: CA_44  and  CB_47 
REMARK   18  A    between atoms: CA_44  and  C_45 
REMARK       I    between atoms: C_45  and  N_57 
REMARK   19  A    between atoms: CB_47  and  CG_48 
REMARK   20  A    between atoms: CZ_52  and  OH_53 
REMARK   21  A    between atoms: N_57  and  CA_58 
REMARK   22  A    between atoms: CA_58  and  CB_61 
REMARK   23  A    between atoms: CA_58  and  C_59 
REMARK       I    between atoms: C_59  and  N_74 
REMARK   24  A    between atoms: CB_61  and  CG_62 
REMARK   25  A    between atoms: CG_62  and  CD_63 
REMARK   26  A    between atoms: CD_63  and  NE_64 
REMARK       I    between atoms: NE_64  and  CZ_65 
REMARK       I    between atoms: CZ_65  and  NH2_66 
REMARK   27  A    between atoms: N_74  and  CA_75 
REMARK   28  A    between atoms: CA_75  and  CB_78 
REMARK   29  A    between atoms: CA_75  and  C_76 
REMARK       I    between atoms: C_76  and  N_85 
REMARK   30  A    between atoms: CB_78  and  CG_79 
REMARK       I    between atoms: CG_79  and  ND2_80 
REMARK   31  A    between atoms: N_85  and  CA_86 
REMARK   32  A    between atoms: CA_86  and  CB_89 
REMARK   33  A    between atoms: CA_86  and  C_87 
REMARK       I    between atoms: C_87  and  N_97 
REMARK   34  A    between atoms: CB_89  and  CG_90 
REMARK   35  A    between atoms: N_97  and  CA_98 
REMARK   36  A    between atoms: CA_98  and  C_99 
REMARK   37  A    between atoms: CA_98  and  CB_102 
REMARK   38  A    between atoms: CB_102  and  CG_103 
ROOT
ATOM      1  C   TYR A   5      17.822   4.466   0.844  1.00  0.00     0.241 C 
ATOM      2  O   TYR A   5      18.957   4.395   1.310  1.00  0.00    -0.271 OA
ATOM      3  N   ARG A   6      16.972   3.428   0.914  1.00  0.00    -0.346 N 
ATOM      4  H   ARG A   6      16.042   3.558   0.524  1.00  0.00     0.163 HD
ENDROOT
BRANCH   3   5
ATOM      5  CA  ARG A   6      17.291   2.143   1.576  1.00  0.00     0.176 C 
BRANCH   5   6
ATOM      6  CB  ARG A   6      18.425   1.448   0.795  1.00  0.00     0.036 C 
BRANCH   6   7
ATOM      7  CG  ARG A   6      18.191  -0.069   0.605  1.00  0.00     0.023 C 
BRANCH   7   8
ATOM      8  CD  ARG A   6      17.725  -0.444  -0.811  1.00  0.00     0.138 C 
BRANCH   8   9
ATOM      9  NE  ARG A   6      17.414  -1.885  -0.930  1.00  0.00    -0.227 N 
ATOM     10  HE  ARG A   6      18.199  -2.487  -1.104  1.00  0.00     0.177 HD
ATOM     11  CZ  ARG A   6      16.251  -2.484  -0.726  1.00  0.00     0.665 C 
ATOM     12  NH2 ARG A   6      16.189  -3.779  -0.750  1.00  0.00    -0.235 N 
ATOM     13  NH1 ARG A   6      15.141  -1.847  -0.484  1.00  0.00    -0.235 N 
ATOM     14 1HH2 ARG A   6      17.048  -4.284  -0.645  1.00  0.00     0.174 HD
ATOM     15 2HH2 ARG A   6      15.403  -4.204  -0.287  1.00  0.00     0.174 HD
ATOM     16 1HH1 ARG A   6      15.187  -0.873  -0.243  1.00  0.00     0.174 HD
ATOM     17 2HH1 ARG A   6      14.303  -2.360  -0.283  1.00  0.00     0.174 HD
ENDBRANCH   8   9
ENDBRANCH   7   8
ENDBRANCH   6   7
ENDBRANCH   5   6
BRANCH   5  18
ATOM     18  C   ARG A   6      17.645   2.282   3.074  1.00  0.00     0.241 C 
ATOM     19  N   ASN A   7      17.120   3.286   3.790  1.00  0.00    -0.346 N 
ATOM     20  H   ASN A   7      16.415   3.870   3.358  1.00  0.00     0.163 HD
ATOM     21  O   ARG A   6      18.498   1.541   3.546  1.00  0.00    -0.271 OA
BRANCH  19  22
ATOM     22  CA  ASN A   7      17.344   3.410   5.244  1.00  0.00     0.185 C 
BRANCH  22  23
ATOM     23  CB  ASN A   7      17.866   4.815   5.605  1.00  0.00     0.137 C 
BRANCH  23  24
ATOM     24  CG  ASN A   7      18.532   5.630   4.516  1.00  0.00     0.217 C 
ATOM     25  ND2 ASN A   7      19.752   5.248   4.202  1.00  0.00    -0.370 N 
ATOM     26 2HD2 ASN A   7      20.251   4.607   4.815  1.00  0.00     0.159 HD
ATOM     27 1HD2 ASN A   7      20.203   5.710   3.442  1.00  0.00     0.159 HD
ATOM     28  OD1 ASN A   7      17.930   6.411   3.785  1.00  0.00    -0.274 OA
ENDBRANCH  23  24
ENDBRANCH  22  23
BRANCH  22  29
ATOM     29  C   ASN A   7      16.081   3.129   6.087  1.00  0.00     0.241 C 
ATOM     30  N   PHE A   8      14.889   3.213   5.477  1.00  0.00    -0.346 N 
ATOM     31  H   PHE A   8      14.869   3.513   4.508  1.00  0.00     0.163 HD
ATOM     32  O   ASN A   7      16.194   2.973   7.303  1.00  0.00    -0.271 OA
BRANCH  30  33
ATOM     33  CA  PHE A   8      13.607   2.878   6.115  1.00  0.00     0.180 C 
BRANCH  33  34
ATOM     34  CB  PHE A   8      12.577   3.936   5.666  1.00  0.00     0.073 C 
BRANCH  34  35
ATOM     35  CG  PHE A   8      12.224   4.966   6.725  1.00  0.00    -0.056 A 
ATOM     36  CD1 PHE A   8      12.445   4.685   8.087  1.00  0.00     0.007 A 
ATOM     37  CE1 PHE A   8      11.996   5.583   9.072  1.00  0.00     0.001 A 
ATOM     38  CZ  PHE A   8      11.329   6.763   8.698  1.00  0.00     0.000 A 
ATOM     39  CE2 PHE A   8      11.137   7.060   7.337  1.00  0.00     0.001 A 
ATOM     40  CD2 PHE A   8      11.591   6.166   6.352  1.00  0.00     0.007 A 
ENDBRANCH  34  35
ENDBRANCH  33  34
BRANCH  33  41
ATOM     41  C   PHE A   8      13.141   1.431   5.815  1.00  0.00     0.241 C 
ATOM     42  N   TRP A   9      12.183   1.282   4.887  1.00  0.00    -0.344 N 
ATOM     43  H   TRP A   9      11.844   2.118   4.437  1.00  0.00     0.163 HD
ATOM     44  O   PHE A   8      13.617   0.494   6.459  1.00  0.00    -0.271 OA
BRANCH  42  45
ATOM     45  CA  TRP A   9      11.525   0.026   4.486  1.00  0.00     0.190 C 
BRANCH  45  46
ATOM     46  C   TRP A   9      11.879  -0.474   3.069  1.00  0.00     0.197 C 
ATOM     47  OXT TRP A   9      13.001  -1.025   2.922  1.00  0.00    -0.646 OA
ATOM     48  O   TRP A   9      11.228   0.027   2.127  1.00  0.00    -0.646 OA
ENDBRANCH  45  46
BRANCH  45  49
ATOM     49  CB  TRP A   9      10.010   0.234   4.636  1.00  0.00     0.077 C 
BRANCH  49  50
ATOM     50  CG  TRP A   9       9.613   1.651   4.895  1.00  0.00    -0.028 A 
ATOM     51  CD1 TRP A   9       9.120   2.477   3.949  1.00  0.00     0.096 A 
ATOM     52  NE1 TRP A   9       8.697   3.655   4.526  1.00  0.00    -0.365 N 
ATOM     53  HE1 TRP A   9       8.123   4.314   4.031  1.00  0.00     0.165 HD
ATOM     54  CE2 TRP A   9       8.838   3.617   5.895  1.00  0.00     0.042 A 
ATOM     55  CD2 TRP A   9       9.425   2.345   6.165  1.00  0.00    -0.002 A 
ATOM     56  CZ2 TRP A   9       8.468   4.510   6.910  1.00  0.00     0.030 A 
ATOM     57  CE3 TRP A   9       9.615   2.005   7.524  1.00  0.00     0.014 A 
ATOM     58  CZ3 TRP A   9       9.230   2.886   8.554  1.00  0.00     0.001 A 
ATOM     59  CH2 TRP A   9       8.660   4.137   8.250  1.00  0.00     0.002 A 
ENDBRANCH  49  50
ENDBRANCH  45  49
ENDBRANCH  42  45
ENDBRANCH  33  41
ENDBRANCH  30  33
ENDBRANCH  22  29
ENDBRANCH  19  22
ENDBRANCH   5  18
ENDBRANCH   3   5
BRANCH   1  60
ATOM     60  CA  TYR A   5      17.475   5.647  -0.082  1.00  0.00     0.180 C 
BRANCH  60  61
ATOM     61  N   TYR A   5      18.078   5.504  -1.412  1.00  0.00    -0.346 N 
ATOM     62  H   TYR A   5      17.987   4.618  -1.888  1.00  0.00     0.163 HD
ATOM     63  C   GLU A   4      18.833   6.464  -1.971  1.00  0.00     0.241 C 
ATOM     64  O   GLU A   4      19.125   7.480  -1.347  1.00  0.00    -0.271 OA
BRANCH  63  65
ATOM     65  CA  GLU A   4      19.581   6.115  -3.265  1.00  0.00     0.177 C 
BRANCH  65  66
ATOM     66  N   GLU A   4      19.472   4.678  -3.573  1.00  0.00    -0.346 N 
ATOM     67  H   GLU A   4      18.682   4.393  -4.138  1.00  0.00     0.163 HD
ATOM     68  C   PRO A   3      20.143   3.706  -2.948  1.00  0.00     0.241 C 
ATOM     69  O   PRO A   3      20.972   3.924  -2.080  1.00  0.00    -0.271 OA
BRANCH  68  70
ATOM     70  CA  PRO A   3      19.874   2.252  -3.361  1.00  0.00     0.179 C 
ATOM     71  N   PRO A   3      18.552   1.972  -3.961  1.00  0.00    -0.337 N 
ATOM     72  CD  PRO A   3      18.748   1.277  -5.231  1.00  0.00     0.127 C 
ATOM     73  C   ASP A   2      17.384   2.125  -3.282  1.00  0.00     0.243 C 
ATOM     74  CG  PRO A   3      20.165   0.710  -5.170  1.00  0.00     0.022 C 
ATOM     75  CB  PRO A   3      20.912   1.791  -4.395  1.00  0.00     0.037 C 
ATOM     76  O   ASP A   2      17.414   2.716  -2.199  1.00  0.00    -0.271 OA
BRANCH  73  77
ATOM     77  CA  ASP A   2      15.989   2.024  -3.993  1.00  0.00     0.186 C 
BRANCH  77  78
ATOM     78  CB  ASP A   2      15.099   0.864  -3.517  1.00  0.00     0.147 C 
BRANCH  78  79
ATOM     79  CG  ASP A   2      14.135   1.317  -2.433  1.00  0.00     0.175 C 
ATOM     80  OD2 ASP A   2      13.323   2.202  -2.793  1.00  0.00    -0.648 OA
ATOM     81  OD1 ASP A   2      14.025   0.569  -1.454  1.00  0.00    -0.648 OA
ENDBRANCH  78  79
ENDBRANCH  77  78
BRANCH  77  82
ATOM     82  N   ASP A   2      15.980   2.008  -5.478  1.00  0.00    -0.345 N 
ATOM     83  H   ASP A   2      16.571   1.296  -5.878  1.00  0.00     0.163 HD
ATOM     84  C   TYR A   1      15.009   2.561  -6.226  1.00  0.00     0.249 C 
ATOM     85  O   TYR A   1      14.198   3.327  -5.762  1.00  0.00    -0.271 OA
BRANCH  84  86
ATOM     86  CA  TYR A   1      15.089   2.548  -7.738  1.00  0.00     0.278 C 
BRANCH  86  87
ATOM     87  N   TYR A   1      14.431   3.729  -8.321  1.00  0.00    -0.066 N 
ATOM     88  H2  TYR A   1      15.115   4.436  -8.546  1.00  0.00     0.275 HD
ATOM     89  H1  TYR A   1      13.768   4.100  -7.655  1.00  0.00     0.275 HD
ATOM     90  H3  TYR A   1      13.941   3.457  -9.166  1.00  0.00     0.275 HD
ENDBRANCH  86  87
BRANCH  86  91
ATOM     91  CB  TYR A   1      16.482   2.291  -8.311  1.00  0.00     0.081 C 
BRANCH  91  92
ATOM     92  CG  TYR A   1      16.563   0.963  -9.041  1.00  0.00    -0.056 A 
ATOM     93  CD2 TYR A   1      16.017  -0.193  -8.437  1.00  0.00     0.010 A 
ATOM     94  CE2 TYR A   1      16.109  -1.437  -9.088  1.00  0.00     0.037 A 
ATOM     95  CZ  TYR A   1      16.738  -1.529 -10.350  1.00  0.00     0.065 A 
ATOM     96  CE1 TYR A   1      17.250  -0.372 -10.968  1.00  0.00     0.037 A 
ATOM     97  CD1 TYR A   1      17.164   0.880 -10.320  1.00  0.00     0.010 A 
BRANCH  95  98
ATOM     98  OH  TYR A   1      16.846  -2.724 -10.974  1.00  0.00    -0.361 OA
ATOM     99  HH  TYR A   1      16.410  -3.422 -10.483  1.00  0.00     0.217 HD
ENDBRANCH  95  98
ENDBRANCH  91  92
ENDBRANCH  86  91
ENDBRANCH  84  86
ENDBRANCH  77  82
ENDBRANCH  73  77
ENDBRANCH  68  70
ENDBRANCH  65  66
BRANCH  65 100
ATOM    100  CB  GLU A   4      19.035   6.930  -4.458  1.00  0.00     0.045 C 
BRANCH 100 101
ATOM    101  CG  GLU A   4      18.794   6.132  -5.750  1.00  0.00     0.116 C 
BRANCH 101 102
ATOM    102  CD  GLU A   4      18.067   6.975  -6.812  1.00  0.00     0.172 C 
ATOM    103  OE2 GLU A   4      18.153   8.216  -6.680  1.00  0.00    -0.648 OA
ATOM    104  OE1 GLU A   4      17.183   6.395  -7.492  1.00  0.00    -0.648 OA
ENDBRANCH 101 102
ENDBRANCH 100 101
ENDBRANCH  65 100
ENDBRANCH  63  65
ENDBRANCH  60  61
BRANCH  60 105
ATOM    105  CB  TYR A   5      15.953   5.852  -0.197  1.00  0.00     0.073 C 
BRANCH 105 106
ATOM    106  CG  TYR A   5      15.417   7.205   0.262  1.00  0.00    -0.056 A 
ATOM    107  CD1 TYR A   5      15.408   7.551   1.634  1.00  0.00     0.010 A 
ATOM    108  CE1 TYR A   5      15.058   8.865   2.029  1.00  0.00     0.037 A 
ATOM    109  CZ  TYR A   5      14.707   9.821   1.057  1.00  0.00     0.065 A 
ATOM    110  CE2 TYR A   5      14.686   9.468  -0.309  1.00  0.00     0.037 A 
ATOM    111  CD2 TYR A   5      15.048   8.167  -0.706  1.00  0.00     0.010 A 
BRANCH 109 112
ATOM    112  OH  TYR A   5      14.399  11.084   1.430  1.00  0.00    -0.361 OA
ATOM    113  HH  TYR A   5      13.451  11.154   1.565  1.00  0.00     0.217 HD
ENDBRANCH 109 112
ENDBRANCH 105 106
ENDBRANCH  60 105
ENDBRANCH   1  60
TORSDOF 38
ENDMDL
