MODEL 1
REMARK VINA RESULT:      -4.9      0.000      0.000
REMARK WARNING: 32 MAX_TORS EXCEEDED!!!
REMARK  42 active torsions:
REMARK  status: ('A' for Active; 'I' for Inactive)
REMARK    1  A    between atoms: CA_2  and  CB_3 
REMARK    2  A    between atoms: CA_2  and  C_11 
REMARK    3  A    between atoms: CB_3  and  CG_4 
REMARK       I    between atoms: C_11  and  N_13 
REMARK    4  A    between atoms: N_13  and  CA_14 
REMARK    5  A    between atoms: CA_14  and  CB_15 
REMARK    6  A    between atoms: CA_14  and  C_19 
REMARK    7  A    between atoms: CB_15  and  CG_16 
REMARK       I    between atoms: C_19  and  N_21 
REMARK    8  A    between atoms: CA_22  and  C_26 
REMARK       I    between atoms: C_26  and  N_28 
REMARK    9  A    between atoms: N_28  and  CA_29 
REMARK   10  A    between atoms: CA_29  and  C_35 
REMARK   11  A    between atoms: CA_29  and  CB_30 
REMARK   12  A    between atoms: CB_30  and  CG_31 
REMARK   13  A    between atoms: CG_31  and  CD_32 
REMARK       I    between atoms: C_35  and  N_37 
REMARK   14  A    between atoms: N_37  and  CA_38 
REMARK   15  A    between atoms: CA_38  and  CB_39 
REMARK   16  A    between atoms: CA_38  and  C_47 
REMARK   17  A    between atoms: CB_39  and  CG_40 
REMARK       I    between atoms: C_47  and  N_49 
REMARK   18  A    between atoms: N_49  and  CA_50 
REMARK   19  A    between atoms: CA_50  and  CB_51 
REMARK   20  A    between atoms: CA_50  and  C_58 
REMARK   21  A    between atoms: CB_51  and  CG_52 
REMARK   22  A    between atoms: CG_52  and  CD_53 
REMARK   23  A    between atoms: CD_53  and  NE_54 
REMARK       I    between atoms: C_58  and  N_60 
REMARK   24  A    between atoms: N_60  and  CA_61 
REMARK   25  A    between atoms: CA_61  and  C_66 
REMARK   26  A    between atoms: CA_61  and  CB_62 
REMARK   27  A    between atoms: CB_62  and  CG_63 
REMARK       I    between atoms: C_66  and  N_68 
REMARK   28  A    between atoms: N_68  and  CA_69 
REMARK   29  A    between atoms: CA_69  and  CB_70 
REMARK   30  A    between atoms: CA_69  and  C_77 
REMARK   31  A    between atoms: CB_70  and  CG_71 
REMARK       I    between atoms: C_77  and  N_79 
REMARK   32  A    between atoms: N_79  and  CA_80 
REMARK   33  A    between atoms: CA_80  and  CB_81 
REMARK   34  A    between atoms: CA_80  and  C_91 
REMARK   35  A    between atoms: CB_81  and  CG_82 
REMARK       I    between atoms: C_91  and  N_93 
REMARK   36  A    between atoms: N_93  and  CA_94 
REMARK   37  A    between atoms: CA_94  and  C_95 
REMARK       I    between atoms: C_95  and  N_97 
REMARK   38  A    between atoms: N_97  and  CA_98 
REMARK   39  A    between atoms: CA_98  and  C_101 
REMARK   40  A    between atoms: CA_98  and  CB_99 
REMARK       I    between atoms: C_101  and  N_103 
REMARK   41  A    between atoms: N_103  and  CA_104 
REMARK   42  A    between atoms: CA_104  and  C_105 
ROOT
ATOM      1  CA  ARG     6      -2.127 -20.492   4.119  1.00  0.00     0.186 C 
ENDROOT
BRANCH   1   2
ATOM      2  N   ARG     6      -1.636 -19.504   5.108  1.00  0.00    -0.229 NA
ATOM      3  C   TYR     5      -2.006 -19.530   6.395  1.00  0.00     0.275 C 
ATOM      4  O   TYR     5      -2.756 -20.396   6.846  1.00  0.00    -0.268 OA
BRANCH   3   5
ATOM      5  CA  TYR     5      -1.364 -18.493   7.330  1.00  0.00     0.191 C 
BRANCH   5   6
ATOM      6  N   TYR     5      -2.218 -17.300   7.567  1.00  0.00    -0.228 NA
ATOM      7  C   GLU     4      -2.016 -16.120   6.957  1.00  0.00     0.274 C 
ATOM      8  O   GLU     4      -1.202 -15.974   6.055  1.00  0.00    -0.268 OA
BRANCH   7   9
ATOM      9  CA  GLU     4      -3.082 -15.035   7.214  1.00  0.00     0.187 C 
BRANCH   9  10
ATOM     10  CB  GLU     4      -2.403 -13.738   7.684  1.00  0.00     0.045 C 
BRANCH  10  11
ATOM     11  CG  GLU     4      -2.439 -13.459   9.202  1.00  0.00     0.100 C 
BRANCH  11  12
ATOM     12  CD  GLU     4      -1.163 -13.853   9.945  1.00  0.00     0.185 C 
ATOM     13  OE1 GLU     4      -0.847 -15.072   9.944  1.00  0.00    -0.647 OA
ATOM     14  OE2 GLU     4      -0.790 -13.093  10.861  1.00  0.00    -0.647 OA
ENDBRANCH  11  12
ENDBRANCH  10  11
ENDBRANCH   9  10
BRANCH   9  15
ATOM     15  N   GLU     4      -4.086 -15.431   8.220  1.00  0.00    -0.229 NA
ATOM     16  C   PRO     3      -5.396 -15.212   8.202  1.00  0.00     0.272 C 
ATOM     17  O   PRO     3      -6.027 -14.972   7.171  1.00  0.00    -0.269 OA
BRANCH  16  18
ATOM     18  CA  PRO     3      -6.165 -15.754   9.407  1.00  0.00     0.165 C 
ATOM     19  N   PRO     3      -6.200 -17.229   9.511  1.00  0.00    -0.312 N 
ATOM     20  CD  PRO     3      -6.033 -17.634  10.930  1.00  0.00     0.105 C 
ATOM     21  C   ASP     2      -6.497 -18.047   8.485  1.00  0.00     0.257 C 
ATOM     22  CG  PRO     3      -6.114 -16.314  11.713  1.00  0.00     0.027 C 
ATOM     23  CB  PRO     3      -5.577 -15.276  10.733  1.00  0.00     0.034 C 
ATOM     24  O   ASP     2      -6.972 -17.589   7.435  1.00  0.00    -0.270 OA
BRANCH  21  25
ATOM     25  CA  ASP     2      -6.588 -19.571   8.730  1.00  0.00     0.195 C 
BRANCH  25  26
ATOM     26  CB  ASP     2      -7.674 -20.045   9.730  1.00  0.00     0.132 C 
BRANCH  26  27
ATOM     27  CG  ASP     2      -8.782 -20.820   8.992  1.00  0.00     0.188 C 
ATOM     28  OD2 ASP     2      -8.521 -21.140   7.805  1.00  0.00    -0.647 OA
ATOM     29  OD1 ASP     2      -9.965 -20.581   9.341  1.00  0.00    -0.647 OA
ENDBRANCH  26  27
ENDBRANCH  25  26
BRANCH  25  30
ATOM     30  N   ASP     2      -5.353 -20.111   9.322  1.00  0.00    -0.228 NA
ATOM     31  C   TYR     1      -4.882 -21.329   9.182  1.00  0.00     0.289 C 
ATOM     32  O   TYR     1      -5.291 -22.220   8.431  1.00  0.00    -0.268 OA
BRANCH  31  33
ATOM     33  CA  TYR     1      -3.703 -21.596  10.112  1.00  0.00     0.385 C 
ATOM     34  N   TYR     1      -4.150 -21.344  11.492  1.00  0.00     0.626 N 
BRANCH  33  35
ATOM     35  CB  TYR     1      -3.269 -23.043   9.893  1.00  0.00     0.075 C 
BRANCH  35  36
ATOM     36  CG  TYR     1      -1.787 -23.175   9.508  1.00  0.00    -0.019 A 
ATOM     37  CD2 TYR     1      -0.863 -23.736  10.374  1.00  0.00    -0.002 A 
ATOM     38  CE2 TYR     1       0.438 -23.967   9.952  1.00  0.00     0.027 A 
ATOM     39  CZ  TYR     1       0.802 -23.622   8.652  1.00  0.00     0.131 A 
ATOM     40  CE1 TYR     1      -0.115 -23.024   7.805  1.00  0.00     0.027 A 
ATOM     41  OH  TYR     1       1.997 -24.004   8.158  1.00  0.00    -0.190 OA
ATOM     42  CD1 TYR     1      -1.415 -22.793   8.227  1.00  0.00    -0.002 A 
ENDBRANCH  35  36
ENDBRANCH  33  35
ENDBRANCH  31  33
ENDBRANCH  25  30
ENDBRANCH  21  25
ENDBRANCH  16  18
ENDBRANCH   9  15
ENDBRANCH   7   9
ENDBRANCH   5   6
BRANCH   5  43
ATOM     43  CB  TYR     5      -0.967 -19.133   8.671  1.00  0.00     0.060 C 
BRANCH  43  44
ATOM     44  CG  TYR     5       0.494 -19.612   8.679  1.00  0.00    -0.020 A 
ATOM     45  CD2 TYR     5       1.274 -19.523   7.533  1.00  0.00    -0.002 A 
ATOM     46  CE2 TYR     5       2.597 -19.953   7.552  1.00  0.00     0.027 A 
ATOM     47  CZ  TYR     5       3.141 -20.472   8.717  1.00  0.00     0.131 A 
ATOM     48  CE1 TYR     5       2.372 -20.549   9.873  1.00  0.00     0.027 A 
ATOM     49  OH  TYR     5       4.376 -21.019   8.707  1.00  0.00    -0.190 OA
ATOM     50  CD1 TYR     5       1.043 -20.125   9.849  1.00  0.00    -0.002 A 
ENDBRANCH  43  44
ENDBRANCH   5  43
ENDBRANCH   3   5
ENDBRANCH   1   2
BRANCH   1  51
ATOM     51  CB  ARG     6      -1.670 -21.915   4.425  1.00  0.00     0.036 C 
BRANCH  51  52
ATOM     52  CG  ARG     6      -0.176 -22.145   4.190  1.00  0.00     0.029 C 
BRANCH  52  53
ATOM     53  CD  ARG     6       0.036 -23.144   3.056  1.00  0.00     0.145 C 
BRANCH  53  54
ATOM     54  NE  ARG     6      -0.815 -24.332   3.233  1.00  0.00    -0.083 NA
ATOM     55  CZ  ARG     6      -1.822 -24.701   2.419  1.00  0.00     0.782 C 
ATOM     56  NH2 ARG     6      -2.586 -25.753   2.719  1.00  0.00     0.063 N 
ATOM     57  NH1 ARG     6      -2.122 -23.970   1.351  1.00  0.00     0.063 N 
ENDBRANCH  53  54
ENDBRANCH  52  53
ENDBRANCH  51  52
ENDBRANCH   1  51
BRANCH   1  58
ATOM     58  C   ARG     6      -3.659 -20.531   4.040  1.00  0.00     0.274 C 
ATOM     59  N   ASN     7      -4.205 -21.743   4.020  1.00  0.00    -0.228 NA
ATOM     60  O   ARG     6      -4.285 -19.471   3.995  1.00  0.00    -0.268 OA
BRANCH  59  61
ATOM     61  CA  ASN     7      -5.663 -21.980   4.045  1.00  0.00     0.196 C 
BRANCH  61  62
ATOM     62  C   ASN     7      -6.015 -23.276   4.801  1.00  0.00     0.275 C 
ATOM     63  N   PHE     8      -5.086 -24.244   4.811  1.00  0.00    -0.228 NA
ATOM     64  O   ASN     7      -6.896 -23.208   5.636  1.00  0.00    -0.268 OA
BRANCH  63  65
ATOM     65  CA  PHE     8      -5.203 -25.523   5.553  1.00  0.00     0.191 C 
BRANCH  65  66
ATOM     66  CB  PHE     8      -4.717 -25.291   6.990  1.00  0.00     0.060 C 
BRANCH  66  67
ATOM     67  CG  PHE     8      -3.296 -25.812   7.273  1.00  0.00    -0.020 A 
ATOM     68  CD1 PHE     8      -2.310 -25.695   6.303  1.00  0.00    -0.004 A 
ATOM     69  CE1 PHE     8      -1.052 -26.257   6.520  1.00  0.00    -0.000 A 
ATOM     70  CZ  PHE     8      -0.789 -26.916   7.711  1.00  0.00    -0.000 A 
ATOM     71  CE2 PHE     8      -1.771 -27.022   8.690  1.00  0.00    -0.000 A 
ATOM     72  CD2 PHE     8      -3.029 -26.460   8.472  1.00  0.00    -0.004 A 
ENDBRANCH  66  67
ENDBRANCH  65  66
BRANCH  65  73
ATOM     73  C   PHE     8      -6.606 -26.170   5.522  1.00  0.00     0.275 C 
ATOM     74  N   TRP     9      -7.148 -26.471   6.703  1.00  0.00    -0.228 NA
ATOM     75  O   PHE     8      -7.078 -26.611   4.471  1.00  0.00    -0.268 OA
BRANCH  74  76
ATOM     76  CA  TRP     9      -8.536 -26.980   6.827  1.00  0.00     0.191 C 
BRANCH  76  77
ATOM     77  CB  TRP     9      -8.750 -27.493   8.261  1.00  0.00     0.062 C 
BRANCH  77  78
ATOM     78  CG  TRP     9      -7.538 -28.236   8.822  1.00  0.00     0.001 A 
ATOM     79  CD1 TRP     9      -7.348 -29.552   8.794  1.00  0.00     0.095 A 
ATOM     80  NE1 TRP     9      -6.359 -29.879   9.615  1.00  0.00    -0.244 NA
ATOM     81  CE2 TRP     9      -5.871 -28.784  10.179  1.00  0.00     0.081 A 
ATOM     82  CD2 TRP     9      -6.607 -27.708   9.709  1.00  0.00     0.015 A 
ATOM     83  CZ2 TRP     9      -4.905 -28.577  11.164  1.00  0.00     0.019 A 
ATOM     84  CE3 TRP     9      -6.405 -26.433  10.218  1.00  0.00     0.001 A 
ATOM     85  CZ3 TRP     9      -5.452 -26.226  11.209  1.00  0.00     0.000 A 
ATOM     86  CH2 TRP     9      -4.691 -27.301  11.665  1.00  0.00     0.002 A 
ENDBRANCH  77  78
ENDBRANCH  76  77
BRANCH  76  87
ATOM     87  C   TRP     9      -9.629 -25.969   6.414  1.00  0.00     0.275 C 
ATOM     88  O   TRP     9     -10.405 -26.220   5.496  1.00  0.00    -0.268 OA
ATOM     89  N   GLY    10      -9.737 -24.878   7.170  1.00  0.00    -0.226 NA
BRANCH  89  90
ATOM     90  CA  GLY    10     -10.754 -23.810   6.961  1.00  0.00     0.218 C 
BRANCH  90  91
ATOM     91  C   GLY    10     -11.573 -23.397   8.194  1.00  0.00     0.277 C 
ATOM     92  N   CYS    11     -11.321 -24.099   9.299  1.00  0.00    -0.228 NA
ATOM     93  O   GLY    10     -12.500 -22.602   8.090  1.00  0.00    -0.268 OA
BRANCH  92  94
ATOM     94  CA  CYS    11     -11.942 -23.904  10.628  1.00  0.00     0.198 C 
BRANCH  94  95
ATOM     95  C   CYS    11     -10.991 -24.489  11.690  1.00  0.00     0.275 C 
ATOM     96  O   CYS    11     -11.465 -24.974  12.712  1.00  0.00    -0.268 OA
ATOM     97  N   GLY    12      -9.700 -24.248  11.513  1.00  0.00    -0.225 NA
BRANCH  97  98
ATOM     98  CA  GLY    12      -8.661 -24.720  12.440  1.00  0.00     0.226 C 
BRANCH  98  99
ATOM     99  C   GLY    12      -7.764 -23.514  12.807  1.00  0.00     0.211 C 
ATOM    100  O1  GLY    12      -7.728 -23.186  14.020  1.00  0.00    -0.646 OA
ATOM    101  O2  GLY    12      -7.115 -22.975  11.892  1.00  0.00    -0.646 OA
ENDBRANCH  98  99
ENDBRANCH  97  98
ENDBRANCH  94  95
BRANCH  94 102
ATOM    102  CB  CYS    11     -13.228 -24.720  10.732  1.00  0.00     0.103 C 
ATOM    103  SG  CYS    11     -14.661 -23.875  11.505  1.00  0.00    -0.080 SA
ENDBRANCH  94 102
ENDBRANCH  92  94
ENDBRANCH  90  91
ENDBRANCH  89  90
ENDBRANCH  76  87
ENDBRANCH  74  76
ENDBRANCH  65  73
ENDBRANCH  63  65
ENDBRANCH  61  62
BRANCH  61 104
ATOM    104  CB  ASN     7      -6.247 -22.000   2.626  1.00  0.00     0.126 C 
BRANCH 104 105
ATOM    105  CG  ASN     7      -7.700 -21.500   2.517  1.00  0.00     0.276 C 
ATOM    106  ND2 ASN     7      -8.401 -21.980   1.516  1.00  0.00    -0.107 N 
ATOM    107  OD1 ASN     7      -8.184 -20.595   3.185  1.00  0.00    -0.269 OA
ENDBRANCH 104 105
ENDBRANCH  61 104
ENDBRANCH  59  61
ENDBRANCH   1  58
TORSDOF 42
ENDMDL
MODEL 2
REMARK VINA RESULT:      -4.8      3.105      6.886
REMARK WARNING: 32 MAX_TORS EXCEEDED!!!
REMARK  42 active torsions:
REMARK  status: ('A' for Active; 'I' for Inactive)
REMARK    1  A    between atoms: CA_2  and  CB_3 
REMARK    2  A    between atoms: CA_2  and  C_11 
REMARK    3  A    between atoms: CB_3  and  CG_4 
REMARK       I    between atoms: C_11  and  N_13 
REMARK    4  A    between atoms: N_13  and  CA_14 
REMARK    5  A    between atoms: CA_14  and  CB_15 
REMARK    6  A    between atoms: CA_14  and  C_19 
REMARK    7  A    between atoms: CB_15  and  CG_16 
REMARK       I    between atoms: C_19  and  N_21 
REMARK    8  A    between atoms: CA_22  and  C_26 
REMARK       I    between atoms: C_26  and  N_28 
REMARK    9  A    between atoms: N_28  and  CA_29 
REMARK   10  A    between atoms: CA_29  and  C_35 
REMARK   11  A    between atoms: CA_29  and  CB_30 
REMARK   12  A    between atoms: CB_30  and  CG_31 
REMARK   13  A    between atoms: CG_31  and  CD_32 
REMARK       I    between atoms: C_35  and  N_37 
REMARK   14  A    between atoms: N_37  and  CA_38 
REMARK   15  A    between atoms: CA_38  and  CB_39 
REMARK   16  A    between atoms: CA_38  and  C_47 
REMARK   17  A    between atoms: CB_39  and  CG_40 
REMARK       I    between atoms: C_47  and  N_49 
REMARK   18  A    between atoms: N_49  and  CA_50 
REMARK   19  A    between atoms: CA_50  and  CB_51 
REMARK   20  A    between atoms: CA_50  and  C_58 
REMARK   21  A    between atoms: CB_51  and  CG_52 
REMARK   22  A    between atoms: CG_52  and  CD_53 
REMARK   23  A    between atoms: CD_53  and  NE_54 
REMARK       I    between atoms: C_58  and  N_60 
REMARK   24  A    between atoms: N_60  and  CA_61 
REMARK   25  A    between atoms: CA_61  and  C_66 
REMARK   26  A    between atoms: CA_61  and  CB_62 
REMARK   27  A    between atoms: CB_62  and  CG_63 
REMARK       I    between atoms: C_66  and  N_68 
REMARK   28  A    between atoms: N_68  and  CA_69 
REMARK   29  A    between atoms: CA_69  and  CB_70 
REMARK   30  A    between atoms: CA_69  and  C_77 
REMARK   31  A    between atoms: CB_70  and  CG_71 
REMARK       I    between atoms: C_77  and  N_79 
REMARK   32  A    between atoms: N_79  and  CA_80 
REMARK   33  A    between atoms: CA_80  and  CB_81 
REMARK   34  A    between atoms: CA_80  and  C_91 
REMARK   35  A    between atoms: CB_81  and  CG_82 
REMARK       I    between atoms: C_91  and  N_93 
REMARK   36  A    between atoms: N_93  and  CA_94 
REMARK   37  A    between atoms: CA_94  and  C_95 
REMARK       I    between atoms: C_95  and  N_97 
REMARK   38  A    between atoms: N_97  and  CA_98 
REMARK   39  A    between atoms: CA_98  and  C_101 
REMARK   40  A    between atoms: CA_98  and  CB_99 
REMARK       I    between atoms: C_101  and  N_103 
REMARK   41  A    between atoms: N_103  and  CA_104 
REMARK   42  A    between atoms: CA_104  and  C_105 
ROOT
ATOM      1  CA  ARG     6      -4.421 -20.788   3.090  1.00  0.00     0.186 C 
ENDROOT
BRANCH   1   2
ATOM      2  N   ARG     6      -3.589 -21.281   4.212  1.00  0.00    -0.229 NA
ATOM      3  C   TYR     5      -2.477 -20.650   4.612  1.00  0.00     0.275 C 
ATOM      4  O   TYR     5      -2.090 -19.604   4.091  1.00  0.00    -0.268 OA
BRANCH   3   5
ATOM      5  CA  TYR     5      -1.747 -21.225   5.837  1.00  0.00     0.191 C 
BRANCH   5   6
ATOM      6  N   TYR     5      -1.230 -20.184   6.762  1.00  0.00    -0.228 NA
ATOM      7  C   GLU     4       0.019 -19.694   6.690  1.00  0.00     0.274 C 
ATOM      8  O   GLU     4       0.782 -19.963   5.772  1.00  0.00    -0.268 OA
BRANCH   7   9
ATOM      9  CA  GLU     4       0.340 -18.520   7.637  1.00  0.00     0.187 C 
BRANCH   9  10
ATOM     10  CB  GLU     4       0.701 -19.057   9.031  1.00  0.00     0.045 C 
BRANCH  10  11
ATOM     11  CG  GLU     4       1.630 -20.291   9.069  1.00  0.00     0.100 C 
BRANCH  11  12
ATOM     12  CD  GLU     4       2.816 -20.157  10.023  1.00  0.00     0.185 C 
ATOM     13  OE1 GLU     4       3.807 -20.906   9.822  1.00  0.00    -0.647 OA
ATOM     14  OE2 GLU     4       2.573 -19.703  11.159  1.00  0.00    -0.647 OA
ENDBRANCH  11  12
ENDBRANCH  10  11
ENDBRANCH   9  10
BRANCH   9  15
ATOM     15  N   GLU     4      -0.773 -17.561   7.775  1.00  0.00    -0.229 NA
ATOM     16  C   PRO     3      -1.158 -16.622   6.919  1.00  0.00     0.272 C 
ATOM     17  O   PRO     3      -0.882 -16.648   5.718  1.00  0.00    -0.269 OA
BRANCH  16  18
ATOM     18  CA  PRO     3      -2.358 -15.785   7.364  1.00  0.00     0.165 C 
ATOM     19  N   PRO     3      -3.491 -16.563   7.910  1.00  0.00    -0.312 N 
ATOM     20  CD  PRO     3      -4.063 -15.855   9.084  1.00  0.00     0.105 C 
ATOM     21  C   ASP     2      -4.004 -17.658   7.320  1.00  0.00     0.257 C 
ATOM     22  CG  PRO     3      -3.354 -14.492   9.088  1.00  0.00     0.027 C 
ATOM     23  CB  PRO     3      -1.994 -14.788   8.462  1.00  0.00     0.034 C 
ATOM     24  O   ASP     2      -3.683 -17.953   6.159  1.00  0.00    -0.270 OA
BRANCH  21  25
ATOM     25  CA  ASP     2      -5.245 -18.343   7.937  1.00  0.00     0.195 C 
BRANCH  25  26
ATOM     26  CB  ASP     2      -5.189 -19.887   8.061  1.00  0.00     0.132 C 
BRANCH  26  27
ATOM     27  CG  ASP     2      -5.590 -20.327   9.482  1.00  0.00     0.188 C 
ATOM     28  OD2 ASP     2      -6.788 -20.684   9.620  1.00  0.00    -0.647 OA
ATOM     29  OD1 ASP     2      -4.972 -19.790  10.434  1.00  0.00    -0.647 OA
ENDBRANCH  26  27
ENDBRANCH  25  26
BRANCH  25  30
ATOM     30  N   ASP     2      -6.454 -18.133   7.123  1.00  0.00    -0.228 NA
ATOM     31  C   TYR     1      -7.118 -17.010   6.979  1.00  0.00     0.289 C 
ATOM     32  O   TYR     1      -6.801 -15.883   7.374  1.00  0.00    -0.268 OA
BRANCH  31  33
ATOM     33  CA  TYR     1      -8.437 -17.216   6.241  1.00  0.00     0.385 C 
ATOM     34  N   TYR     1      -9.089 -18.409   6.808  1.00  0.00     0.626 N 
BRANCH  33  35
ATOM     35  CB  TYR     1      -9.268 -15.950   6.432  1.00  0.00     0.075 C 
BRANCH  35  36
ATOM     36  CG  TYR     1      -9.503 -15.182   5.121  1.00  0.00    -0.019 A 
ATOM     37  CD2 TYR     1      -8.607 -15.263   4.067  1.00  0.00    -0.002 A 
ATOM     38  CE2 TYR     1      -8.908 -14.671   2.849  1.00  0.00     0.027 A 
ATOM     39  CZ  TYR     1     -10.116 -13.990   2.704  1.00  0.00     0.131 A 
ATOM     40  CE1 TYR     1     -10.987 -13.878   3.773  1.00  0.00     0.027 A 
ATOM     41  OH  TYR     1     -10.516 -13.570   1.487  1.00  0.00    -0.190 OA
ATOM     42  CD1 TYR     1     -10.686 -14.470   4.991  1.00  0.00    -0.002 A 
ENDBRANCH  35  36
ENDBRANCH  33  35
ENDBRANCH  31  33
ENDBRANCH  25  30
ENDBRANCH  21  25
ENDBRANCH  16  18
ENDBRANCH   9  15
ENDBRANCH   7   9
ENDBRANCH   5   6
BRANCH   5  43
ATOM     43  CB  TYR     5      -2.649 -22.209   6.602  1.00  0.00     0.060 C 
BRANCH  43  44
ATOM     44  CG  TYR     5      -2.003 -22.697   7.909  1.00  0.00    -0.020 A 
ATOM     45  CD2 TYR     5      -2.605 -22.441   9.134  1.00  0.00    -0.002 A 
ATOM     46  CE2 TYR     5      -2.016 -22.894  10.311  1.00  0.00     0.027 A 
ATOM     47  CZ  TYR     5      -0.826 -23.602  10.263  1.00  0.00     0.131 A 
ATOM     48  CE1 TYR     5      -0.226 -23.878   9.040  1.00  0.00     0.027 A 
ATOM     49  OH  TYR     5      -0.178 -23.922  11.404  1.00  0.00    -0.190 OA
ATOM     50  CD1 TYR     5      -0.813 -23.416   7.862  1.00  0.00    -0.002 A 
ENDBRANCH  43  44
ENDBRANCH   5  43
ENDBRANCH   3   5
ENDBRANCH   1   2
BRANCH   1  51
ATOM     51  CB  ARG     6      -4.421 -21.733   1.892  1.00  0.00     0.036 C 
BRANCH  51  52
ATOM     52  CG  ARG     6      -3.452 -22.909   2.037  1.00  0.00     0.029 C 
BRANCH  52  53
ATOM     53  CD  ARG     6      -3.528 -23.814   0.810  1.00  0.00     0.145 C 
BRANCH  53  54
ATOM     54  NE  ARG     6      -3.173 -25.201   1.154  1.00  0.00    -0.083 NA
ATOM     55  CZ  ARG     6      -4.049 -26.202   1.365  1.00  0.00     0.782 C 
ATOM     56  NH2 ARG     6      -3.622 -27.405   1.755  1.00  0.00     0.063 N 
ATOM     57  NH1 ARG     6      -5.356 -25.981   1.272  1.00  0.00     0.063 N 
ENDBRANCH  53  54
ENDBRANCH  52  53
ENDBRANCH  51  52
ENDBRANCH   1  51
BRANCH   1  58
ATOM     58  C   ARG     6      -5.888 -20.589   3.491  1.00  0.00     0.274 C 
ATOM     59  N   ASN     7      -6.745 -21.484   3.008  1.00  0.00    -0.228 NA
ATOM     60  O   ARG     6      -6.190 -19.638   4.213  1.00  0.00    -0.268 OA
BRANCH  59  61
ATOM     61  CA  ASN     7      -8.180 -21.513   3.362  1.00  0.00     0.196 C 
BRANCH  61  62
ATOM     62  C   ASN     7      -8.435 -22.362   4.623  1.00  0.00     0.275 C 
ATOM     63  N   PHE     8      -8.506 -21.708   5.792  1.00  0.00    -0.228 NA
ATOM     64  O   ASN     7      -8.929 -23.461   4.459  1.00  0.00    -0.268 OA
BRANCH  63  65
ATOM     65  CA  PHE     8      -8.829 -22.336   7.096  1.00  0.00     0.191 C 
BRANCH  65  66
ATOM     66  CB  PHE     8     -10.339 -22.606   7.139  1.00  0.00     0.060 C 
BRANCH  66  67
ATOM     67  CG  PHE     8     -11.041 -22.097   8.412  1.00  0.00    -0.020 A 
ATOM     68  CD1 PHE     8     -12.427 -22.033   8.460  1.00  0.00    -0.004 A 
ATOM     69  CE1 PHE     8     -13.058 -21.476   9.573  1.00  0.00    -0.000 A 
ATOM     70  CZ  PHE     8     -12.297 -21.005  10.631  1.00  0.00    -0.000 A 
ATOM     71  CE2 PHE     8     -10.909 -21.080  10.590  1.00  0.00    -0.000 A 
ATOM     72  CD2 PHE     8     -10.278 -21.637   9.478  1.00  0.00    -0.004 A 
ENDBRANCH  66  67
ENDBRANCH  65  66
BRANCH  65  73
ATOM     73  C   PHE     8      -8.012 -23.604   7.430  1.00  0.00     0.275 C 
ATOM     74  N   TRP     9      -8.703 -24.738   7.562  1.00  0.00    -0.228 NA
ATOM     75  O   PHE     8      -6.838 -23.523   7.801  1.00  0.00    -0.268 OA
BRANCH  74  76
ATOM     76  CA  TRP     9      -8.036 -26.049   7.760  1.00  0.00     0.191 C 
BRANCH  76  77
ATOM     77  CB  TRP     9      -8.616 -26.716   9.018  1.00  0.00     0.062 C 
BRANCH  77  78
ATOM     78  CG  TRP     9      -8.878 -25.730  10.155  1.00  0.00     0.001 A 
ATOM     79  CD1 TRP     9      -8.008 -25.373  11.096  1.00  0.00     0.095 A 
ATOM     80  NE1 TRP     9      -8.642 -24.745  12.078  1.00  0.00    -0.244 NA
ATOM     81  CE2 TRP     9      -9.932 -24.661  11.790  1.00  0.00     0.081 A 
ATOM     82  CD2 TRP     9     -10.131 -25.292  10.572  1.00  0.00     0.015 A 
ATOM     83  CZ2 TRP     9     -11.033 -24.188  12.504  1.00  0.00     0.019 A 
ATOM     84  CE3 TRP     9     -11.410 -25.471  10.065  1.00  0.00     0.001 A 
ATOM     85  CZ3 TRP     9     -12.510 -25.011  10.782  1.00  0.00     0.000 A 
ATOM     86  CH2 TRP     9     -12.312 -24.353  11.994  1.00  0.00     0.002 A 
ENDBRANCH  77  78
ENDBRANCH  76  77
BRANCH  76  87
ATOM     87  C   TRP     9      -8.098 -26.990   6.535  1.00  0.00     0.275 C 
ATOM     88  O   TRP     9      -8.692 -28.063   6.595  1.00  0.00    -0.268 OA
ATOM     89  N   GLY    10      -7.564 -26.524   5.407  1.00  0.00    -0.226 NA
BRANCH  89  90
ATOM     90  CA  GLY    10      -7.563 -27.261   4.114  1.00  0.00     0.218 C 
BRANCH  90  91
ATOM     91  C   GLY    10      -8.707 -26.933   3.141  1.00  0.00     0.277 C 
ATOM     92  N   CYS    11      -9.667 -27.854   3.070  1.00  0.00    -0.228 NA
ATOM     93  O   GLY    10      -8.623 -25.977   2.378  1.00  0.00    -0.268 OA
BRANCH  92  94
ATOM     94  CA  CYS    11     -10.891 -27.790   2.239  1.00  0.00     0.198 C 
BRANCH  94  95
ATOM     95  C   CYS    11     -12.104 -27.670   3.182  1.00  0.00     0.275 C 
ATOM     96  O   CYS    11     -12.998 -28.505   3.111  1.00  0.00    -0.268 OA
ATOM     97  N   GLY    12     -12.190 -26.546   3.878  1.00  0.00    -0.225 NA
BRANCH  97  98
ATOM     98  CA  GLY    12     -13.292 -26.264   4.812  1.00  0.00     0.226 C 
BRANCH  98  99
ATOM     99  C   GLY    12     -12.676 -25.917   6.187  1.00  0.00     0.211 C 
ATOM    100  O1  GLY    12     -13.322 -25.115   6.908  1.00  0.00    -0.646 OA
ATOM    101  O2  GLY    12     -11.609 -26.476   6.502  1.00  0.00    -0.646 OA
ENDBRANCH  98  99
ENDBRANCH  97  98
ENDBRANCH  94  95
BRANCH  94 102
ATOM    102  CB  CYS    11     -11.083 -29.104   1.485  1.00  0.00     0.103 C 
ATOM    103  SG  CYS    11     -10.813 -29.043  -0.328  1.00  0.00    -0.080 SA
ENDBRANCH  94 102
ENDBRANCH  92  94
ENDBRANCH  90  91
ENDBRANCH  89  90
ENDBRANCH  76  87
ENDBRANCH  74  76
ENDBRANCH  65  73
ENDBRANCH  63  65
ENDBRANCH  61  62
BRANCH  61 104
ATOM    104  CB  ASN     7      -9.034 -22.008   2.188  1.00  0.00     0.126 C 
BRANCH 104 105
ATOM    105  CG  ASN     7      -8.238 -22.396   0.928  1.00  0.00     0.276 C 
ATOM    106  ND2 ASN     7      -8.408 -21.624  -0.121  1.00  0.00    -0.107 N 
ATOM    107  OD1 ASN     7      -7.601 -23.432   0.790  1.00  0.00    -0.269 OA
ENDBRANCH 104 105
ENDBRANCH  61 104
ENDBRANCH  59  61
ENDBRANCH   1  58
TORSDOF 42
ENDMDL
MODEL 3
REMARK VINA RESULT:      -4.6      2.520      3.779
REMARK WARNING: 32 MAX_TORS EXCEEDED!!!
REMARK  42 active torsions:
REMARK  status: ('A' for Active; 'I' for Inactive)
REMARK    1  A    between atoms: CA_2  and  CB_3 
REMARK    2  A    between atoms: CA_2  and  C_11 
REMARK    3  A    between atoms: CB_3  and  CG_4 
REMARK       I    between atoms: C_11  and  N_13 
REMARK    4  A    between atoms: N_13  and  CA_14 
REMARK    5  A    between atoms: CA_14  and  CB_15 
REMARK    6  A    between atoms: CA_14  and  C_19 
REMARK    7  A    between atoms: CB_15  and  CG_16 
REMARK       I    between atoms: C_19  and  N_21 
REMARK    8  A    between atoms: CA_22  and  C_26 
REMARK       I    between atoms: C_26  and  N_28 
REMARK    9  A    between atoms: N_28  and  CA_29 
REMARK   10  A    between atoms: CA_29  and  C_35 
REMARK   11  A    between atoms: CA_29  and  CB_30 
REMARK   12  A    between atoms: CB_30  and  CG_31 
REMARK   13  A    between atoms: CG_31  and  CD_32 
REMARK       I    between atoms: C_35  and  N_37 
REMARK   14  A    between atoms: N_37  and  CA_38 
REMARK   15  A    between atoms: CA_38  and  CB_39 
REMARK   16  A    between atoms: CA_38  and  C_47 
REMARK   17  A    between atoms: CB_39  and  CG_40 
REMARK       I    between atoms: C_47  and  N_49 
REMARK   18  A    between atoms: N_49  and  CA_50 
REMARK   19  A    between atoms: CA_50  and  CB_51 
REMARK   20  A    between atoms: CA_50  and  C_58 
REMARK   21  A    between atoms: CB_51  and  CG_52 
REMARK   22  A    between atoms: CG_52  and  CD_53 
REMARK   23  A    between atoms: CD_53  and  NE_54 
REMARK       I    between atoms: C_58  and  N_60 
REMARK   24  A    between atoms: N_60  and  CA_61 
REMARK   25  A    between atoms: CA_61  and  C_66 
REMARK   26  A    between atoms: CA_61  and  CB_62 
REMARK   27  A    between atoms: CB_62  and  CG_63 
REMARK       I    between atoms: C_66  and  N_68 
REMARK   28  A    between atoms: N_68  and  CA_69 
REMARK   29  A    between atoms: CA_69  and  CB_70 
REMARK   30  A    between atoms: CA_69  and  C_77 
REMARK   31  A    between atoms: CB_70  and  CG_71 
REMARK       I    between atoms: C_77  and  N_79 
REMARK   32  A    between atoms: N_79  and  CA_80 
REMARK   33  A    between atoms: CA_80  and  CB_81 
REMARK   34  A    between atoms: CA_80  and  C_91 
REMARK   35  A    between atoms: CB_81  and  CG_82 
REMARK       I    between atoms: C_91  and  N_93 
REMARK   36  A    between atoms: N_93  and  CA_94 
REMARK   37  A    between atoms: CA_94  and  C_95 
REMARK       I    between atoms: C_95  and  N_97 
REMARK   38  A    between atoms: N_97  and  CA_98 
REMARK   39  A    between atoms: CA_98  and  C_101 
REMARK   40  A    between atoms: CA_98  and  CB_99 
REMARK       I    between atoms: C_101  and  N_103 
REMARK   41  A    between atoms: N_103  and  CA_104 
REMARK   42  A    between atoms: CA_104  and  C_105 
ROOT
ATOM      1  CA  ARG     6      -2.492 -20.438   3.899  1.00  0.00     0.186 C 
ENDROOT
BRANCH   1   2
ATOM      2  N   ARG     6      -1.933 -19.513   4.913  1.00  0.00    -0.229 NA
ATOM      3  C   TYR     5      -2.321 -19.534   6.195  1.00  0.00     0.275 C 
ATOM      4  O   TYR     5      -3.146 -20.343   6.620  1.00  0.00    -0.268 OA
BRANCH   3   5
ATOM      5  CA  TYR     5      -1.608 -18.570   7.158  1.00  0.00     0.191 C 
BRANCH   5   6
ATOM      6  N   TYR     5      -2.371 -17.322   7.420  1.00  0.00    -0.228 NA
ATOM      7  C   GLU     4      -2.051 -16.138   6.872  1.00  0.00     0.274 C 
ATOM      8  O   GLU     4      -1.194 -16.021   6.005  1.00  0.00    -0.268 OA
BRANCH   7   9
ATOM      9  CA  GLU     4      -3.033 -14.980   7.142  1.00  0.00     0.187 C 
BRANCH   9  10
ATOM     10  CB  GLU     4      -2.280 -13.789   7.756  1.00  0.00     0.045 C 
BRANCH  10  11
ATOM     11  CG  GLU     4      -2.729 -13.350   9.167  1.00  0.00     0.100 C 
BRANCH  11  12
ATOM     12  CD  GLU     4      -1.952 -14.007  10.307  1.00  0.00     0.185 C 
ATOM     13  OE1 GLU     4      -0.914 -14.652  10.003  1.00  0.00    -0.647 OA
ATOM     14  OE2 GLU     4      -2.595 -14.274  11.343  1.00  0.00    -0.647 OA
ENDBRANCH  11  12
ENDBRANCH  10  11
ENDBRANCH   9  10
BRANCH   9  15
ATOM     15  N   GLU     4      -4.139 -15.353   8.045  1.00  0.00    -0.229 NA
ATOM     16  C   PRO     3      -5.435 -15.096   7.905  1.00  0.00     0.272 C 
ATOM     17  O   PRO     3      -5.958 -14.831   6.821  1.00  0.00    -0.269 OA
BRANCH  16  18
ATOM     18  CA  PRO     3      -6.330 -15.623   9.027  1.00  0.00     0.165 C 
ATOM     19  N   PRO     3      -6.353 -17.095   9.166  1.00  0.00    -0.312 N 
ATOM     20  CD  PRO     3      -6.345 -17.462  10.605  1.00  0.00     0.105 C 
ATOM     21  C   ASP     2      -6.517 -17.944   8.135  1.00  0.00     0.257 C 
ATOM     22  CG  PRO     3      -6.538 -16.125  11.338  1.00  0.00     0.027 C 
ATOM     23  CB  PRO     3      -5.907 -15.101  10.399  1.00  0.00     0.034 C 
ATOM     24  O   ASP     2      -6.874 -17.520   7.025  1.00  0.00    -0.270 OA
BRANCH  21  25
ATOM     25  CA  ASP     2      -6.611 -19.462   8.407  1.00  0.00     0.195 C 
BRANCH  25  26
ATOM     26  CB  ASP     2      -7.778 -19.928   9.315  1.00  0.00     0.132 C 
BRANCH  26  27
ATOM     27  CG  ASP     2      -8.676 -20.930   8.565  1.00  0.00     0.188 C 
ATOM     28  OD2 ASP     2      -9.723 -20.449   8.063  1.00  0.00    -0.647 OA
ATOM     29  OD1 ASP     2      -8.651 -22.120   8.967  1.00  0.00    -0.647 OA
ENDBRANCH  26  27
ENDBRANCH  25  26
BRANCH  25  30
ATOM     30  N   ASP     2      -5.428 -19.970   9.124  1.00  0.00    -0.228 NA
ATOM     31  C   TYR     1      -4.972 -21.201   9.111  1.00  0.00     0.289 C 
ATOM     32  O   TYR     1      -5.345 -22.143   8.404  1.00  0.00    -0.268 OA
BRANCH  31  33
ATOM     33  CA  TYR     1      -3.863 -21.410  10.137  1.00  0.00     0.385 C 
ATOM     34  N   TYR     1      -4.378 -20.985  11.450  1.00  0.00     0.626 N 
BRANCH  33  35
ATOM     35  CB  TYR     1      -3.488 -22.890  10.108  1.00  0.00     0.075 C 
BRANCH  35  36
ATOM     36  CG  TYR     1      -2.120 -23.150   9.458  1.00  0.00    -0.019 A 
ATOM     37  CD2 TYR     1      -1.868 -22.801   8.140  1.00  0.00    -0.002 A 
ATOM     38  CE2 TYR     1      -0.589 -22.921   7.620  1.00  0.00     0.027 A 
ATOM     39  CZ  TYR     1       0.435 -23.403   8.435  1.00  0.00     0.131 A 
ATOM     40  CE1 TYR     1       0.167 -23.788   9.736  1.00  0.00     0.027 A 
ATOM     41  OH  TYR     1       1.716 -23.354   8.016  1.00  0.00    -0.190 OA
ATOM     42  CD1 TYR     1      -1.112 -23.668  10.257  1.00  0.00    -0.002 A 
ENDBRANCH  35  36
ENDBRANCH  33  35
ENDBRANCH  31  33
ENDBRANCH  25  30
ENDBRANCH  21  25
ENDBRANCH  16  18
ENDBRANCH   9  15
ENDBRANCH   7   9
ENDBRANCH   5   6
BRANCH   5  43
ATOM     43  CB  TYR     5      -1.270 -19.271   8.485  1.00  0.00     0.060 C 
BRANCH  43  44
ATOM     44  CG  TYR     5       0.225 -19.612   8.600  1.00  0.00    -0.020 A 
ATOM     45  CD2 TYR     5       1.068 -19.476   7.504  1.00  0.00    -0.002 A 
ATOM     46  CE2 TYR     5       2.421 -19.780   7.620  1.00  0.00     0.027 A 
ATOM     47  CZ  TYR     5       2.931 -20.220   8.832  1.00  0.00     0.131 A 
ATOM     48  CE1 TYR     5       2.098 -20.342   9.938  1.00  0.00     0.027 A 
ATOM     49  OH  TYR     5       4.209 -20.649   8.916  1.00  0.00    -0.190 OA
ATOM     50  CD1 TYR     5       0.740 -20.045   9.817  1.00  0.00    -0.002 A 
ENDBRANCH  43  44
ENDBRANCH   5  43
ENDBRANCH   3   5
ENDBRANCH   1   2
BRANCH   1  51
ATOM     51  CB  ARG     6      -2.014 -21.876   4.080  1.00  0.00     0.036 C 
BRANCH  51  52
ATOM     52  CG  ARG     6      -0.511 -22.057   3.851  1.00  0.00     0.029 C 
BRANCH  52  53
ATOM     53  CD  ARG     6      -0.249 -23.300   3.005  1.00  0.00     0.145 C 
BRANCH  53  54
ATOM     54  NE  ARG     6      -1.305 -24.306   3.204  1.00  0.00    -0.083 NA
ATOM     55  CZ  ARG     6      -2.130 -24.772   2.248  1.00  0.00     0.782 C 
ATOM     56  NH2 ARG     6      -3.110 -25.625   2.555  1.00  0.00     0.063 N 
ATOM     57  NH1 ARG     6      -2.035 -24.323   1.002  1.00  0.00     0.063 N 
ENDBRANCH  53  54
ENDBRANCH  52  53
ENDBRANCH  51  52
ENDBRANCH   1  51
BRANCH   1  58
ATOM     58  C   ARG     6      -4.025 -20.480   3.924  1.00  0.00     0.274 C 
ATOM     59  N   ASN     7      -4.567 -21.687   4.053  1.00  0.00    -0.228 NA
ATOM     60  O   ARG     6      -4.657 -19.427   3.822  1.00  0.00    -0.268 OA
BRANCH  59  61
ATOM     61  CA  ASN     7      -6.020 -21.917   4.194  1.00  0.00     0.196 C 
BRANCH  61  62
ATOM     62  C   ASN     7      -6.317 -23.224   4.954  1.00  0.00     0.275 C 
ATOM     63  N   PHE     8      -5.392 -24.193   4.879  1.00  0.00    -0.228 NA
ATOM     64  O   ASN     7      -7.131 -23.169   5.855  1.00  0.00    -0.268 OA
BRANCH  63  65
ATOM     65  CA  PHE     8      -5.455 -25.484   5.607  1.00  0.00     0.191 C 
BRANCH  65  66
ATOM     66  CB  PHE     8      -4.892 -25.268   7.018  1.00  0.00     0.060 C 
BRANCH  66  67
ATOM     67  CG  PHE     8      -3.461 -25.801   7.220  1.00  0.00    -0.020 A 
ATOM     68  CD1 PHE     8      -2.555 -25.769   6.170  1.00  0.00    -0.004 A 
ATOM     69  CE1 PHE     8      -1.293 -26.344   6.323  1.00  0.00    -0.000 A 
ATOM     70  CZ  PHE     8      -0.947 -26.931   7.529  1.00  0.00    -0.000 A 
ATOM     71  CE2 PHE     8      -1.849 -26.953   8.588  1.00  0.00    -0.000 A 
ATOM     72  CD2 PHE     8      -3.111 -26.378   8.434  1.00  0.00    -0.004 A 
ENDBRANCH  66  67
ENDBRANCH  65  66
BRANCH  65  73
ATOM     73  C   PHE     8      -6.852 -26.145   5.644  1.00  0.00     0.275 C 
ATOM     74  N   TRP     9      -7.293 -26.532   6.842  1.00  0.00    -0.228 NA
ATOM     75  O   PHE     8      -7.405 -26.518   4.607  1.00  0.00    -0.268 OA
BRANCH  74  76
ATOM     76  CA  TRP     9      -8.663 -27.066   7.042  1.00  0.00     0.191 C 
BRANCH  76  77
ATOM     77  CB  TRP     9      -8.712 -27.817   8.382  1.00  0.00     0.062 C 
BRANCH  77  78
ATOM     78  CG  TRP     9      -7.359 -27.871   9.092  1.00  0.00     0.001 A 
ATOM     79  CD1 TRP     9      -6.619 -28.959   9.280  1.00  0.00     0.095 A 
ATOM     80  NE1 TRP     9      -5.671 -28.707  10.173  1.00  0.00    -0.244 NA
ATOM     81  CE2 TRP     9      -5.760 -27.447  10.571  1.00  0.00     0.081 A 
ATOM     82  CD2 TRP     9      -6.838 -26.876   9.913  1.00  0.00     0.015 A 
ATOM     83  CZ2 TRP     9      -5.079 -26.709  11.539  1.00  0.00     0.019 A 
ATOM     84  CE3 TRP     9      -7.256 -25.589  10.217  1.00  0.00     0.001 A 
ATOM     85  CZ3 TRP     9      -6.587 -24.857  11.192  1.00  0.00     0.000 A 
ATOM     86  CH2 TRP     9      -5.486 -25.417  11.837  1.00  0.00     0.002 A 
ENDBRANCH  77  78
ENDBRANCH  76  77
BRANCH  76  87
ATOM     87  C   TRP     9      -9.785 -26.008   6.941  1.00  0.00     0.275 C 
ATOM     88  O   TRP     9      -9.837 -25.068   7.729  1.00  0.00    -0.268 OA
ATOM     89  N   GLY    10     -10.613 -26.125   5.904  1.00  0.00    -0.226 NA
BRANCH  89  90
ATOM     90  CA  GLY    10     -11.727 -25.182   5.609  1.00  0.00     0.218 C 
BRANCH  90  91
ATOM     91  C   GLY    10     -12.722 -25.620   4.522  1.00  0.00     0.277 C 
ATOM     92  N   CYS    11     -12.417 -26.762   3.907  1.00  0.00    -0.228 NA
ATOM     93  O   GLY    10     -13.616 -24.867   4.155  1.00  0.00    -0.268 OA
BRANCH  92  94
ATOM     94  CA  CYS    11     -13.203 -27.428   2.844  1.00  0.00     0.198 C 
BRANCH  94  95
ATOM     95  C   CYS    11     -14.329 -28.237   3.517  1.00  0.00     0.275 C 
ATOM     96  O   CYS    11     -14.053 -28.973   4.458  1.00  0.00    -0.268 OA
ATOM     97  N   GLY    12     -15.500 -28.232   2.897  1.00  0.00    -0.225 NA
BRANCH  97  98
ATOM     98  CA  GLY    12     -16.674 -28.964   3.395  1.00  0.00     0.226 C 
BRANCH  98  99
ATOM     99  C   GLY    12     -17.520 -27.988   4.246  1.00  0.00     0.211 C 
ATOM    100  O1  GLY    12     -17.846 -28.380   5.395  1.00  0.00    -0.646 OA
ATOM    101  O2  GLY    12     -17.789 -26.876   3.756  1.00  0.00    -0.646 OA
ENDBRANCH  98  99
ENDBRANCH  97  98
ENDBRANCH  94  95
BRANCH  94 102
ATOM    102  CB  CYS    11     -12.338 -28.453   2.115  1.00  0.00     0.103 C 
ATOM    103  SG  CYS    11     -11.680 -27.941   0.481  1.00  0.00    -0.080 SA
ENDBRANCH  94 102
ENDBRANCH  92  94
ENDBRANCH  90  91
ENDBRANCH  89  90
ENDBRANCH  76  87
ENDBRANCH  74  76
ENDBRANCH  65  73
ENDBRANCH  63  65
ENDBRANCH  61  62
BRANCH  61 104
ATOM    104  CB  ASN     7      -6.720 -21.908   2.829  1.00  0.00     0.126 C 
BRANCH 104 105
ATOM    105  CG  ASN     7      -8.078 -21.182   2.802  1.00  0.00     0.276 C 
ATOM    106  ND2 ASN     7      -8.898 -21.528   1.837  1.00  0.00    -0.107 N 
ATOM    107  OD1 ASN     7      -8.374 -20.221   3.501  1.00  0.00    -0.269 OA
ENDBRANCH 104 105
ENDBRANCH  61 104
ENDBRANCH  59  61
ENDBRANCH   1  58
TORSDOF 42
ENDMDL
MODEL 4
REMARK VINA RESULT:      -4.6      3.011      7.577
REMARK WARNING: 32 MAX_TORS EXCEEDED!!!
REMARK  42 active torsions:
REMARK  status: ('A' for Active; 'I' for Inactive)
REMARK    1  A    between atoms: CA_2  and  CB_3 
REMARK    2  A    between atoms: CA_2  and  C_11 
REMARK    3  A    between atoms: CB_3  and  CG_4 
REMARK       I    between atoms: C_11  and  N_13 
REMARK    4  A    between atoms: N_13  and  CA_14 
REMARK    5  A    between atoms: CA_14  and  CB_15 
REMARK    6  A    between atoms: CA_14  and  C_19 
REMARK    7  A    between atoms: CB_15  and  CG_16 
REMARK       I    between atoms: C_19  and  N_21 
REMARK    8  A    between atoms: CA_22  and  C_26 
REMARK       I    between atoms: C_26  and  N_28 
REMARK    9  A    between atoms: N_28  and  CA_29 
REMARK   10  A    between atoms: CA_29  and  C_35 
REMARK   11  A    between atoms: CA_29  and  CB_30 
REMARK   12  A    between atoms: CB_30  and  CG_31 
REMARK   13  A    between atoms: CG_31  and  CD_32 
REMARK       I    between atoms: C_35  and  N_37 
REMARK   14  A    between atoms: N_37  and  CA_38 
REMARK   15  A    between atoms: CA_38  and  CB_39 
REMARK   16  A    between atoms: CA_38  and  C_47 
REMARK   17  A    between atoms: CB_39  and  CG_40 
REMARK       I    between atoms: C_47  and  N_49 
REMARK   18  A    between atoms: N_49  and  CA_50 
REMARK   19  A    between atoms: CA_50  and  CB_51 
REMARK   20  A    between atoms: CA_50  and  C_58 
REMARK   21  A    between atoms: CB_51  and  CG_52 
REMARK   22  A    between atoms: CG_52  and  CD_53 
REMARK   23  A    between atoms: CD_53  and  NE_54 
REMARK       I    between atoms: C_58  and  N_60 
REMARK   24  A    between atoms: N_60  and  CA_61 
REMARK   25  A    between atoms: CA_61  and  C_66 
REMARK   26  A    between atoms: CA_61  and  CB_62 
REMARK   27  A    between atoms: CB_62  and  CG_63 
REMARK       I    between atoms: C_66  and  N_68 
REMARK   28  A    between atoms: N_68  and  CA_69 
REMARK   29  A    between atoms: CA_69  and  CB_70 
REMARK   30  A    between atoms: CA_69  and  C_77 
REMARK   31  A    between atoms: CB_70  and  CG_71 
REMARK       I    between atoms: C_77  and  N_79 
REMARK   32  A    between atoms: N_79  and  CA_80 
REMARK   33  A    between atoms: CA_80  and  CB_81 
REMARK   34  A    between atoms: CA_80  and  C_91 
REMARK   35  A    between atoms: CB_81  and  CG_82 
REMARK       I    between atoms: C_91  and  N_93 
REMARK   36  A    between atoms: N_93  and  CA_94 
REMARK   37  A    between atoms: CA_94  and  C_95 
REMARK       I    between atoms: C_95  and  N_97 
REMARK   38  A    between atoms: N_97  and  CA_98 
REMARK   39  A    between atoms: CA_98  and  C_101 
REMARK   40  A    between atoms: CA_98  and  CB_99 
REMARK       I    between atoms: C_101  and  N_103 
REMARK   41  A    between atoms: N_103  and  CA_104 
REMARK   42  A    between atoms: CA_104  and  C_105 
ROOT
ATOM      1  CA  ARG     6      -0.998 -18.527   6.922  1.00  0.00     0.186 C 
ENDROOT
BRANCH   1   2
ATOM      2  N   ARG     6      -1.943 -17.507   7.433  1.00  0.00    -0.229 NA
ATOM      3  C   TYR     5      -2.008 -16.269   6.924  1.00  0.00     0.275 C 
ATOM      4  O   TYR     5      -1.306 -15.908   5.979  1.00  0.00    -0.268 OA
BRANCH   3   5
ATOM      5  CA  TYR     5      -3.084 -15.332   7.495  1.00  0.00     0.191 C 
BRANCH   5   6
ATOM      6  N   TYR     5      -4.465 -15.866   7.366  1.00  0.00    -0.228 NA
ATOM      7  C   GLU     4      -5.514 -15.108   7.008  1.00  0.00     0.274 C 
ATOM      8  O   GLU     4      -5.394 -13.951   6.625  1.00  0.00    -0.268 OA
BRANCH   7   9
ATOM      9  CA  GLU     4      -6.845 -15.855   6.787  1.00  0.00     0.187 C 
BRANCH   9  10
ATOM     10  CB  GLU     4      -7.630 -15.926   8.107  1.00  0.00     0.045 C 
BRANCH  10  11
ATOM     11  CG  GLU     4      -8.741 -16.996   8.184  1.00  0.00     0.100 C 
BRANCH  11  12
ATOM     12  CD  GLU     4      -8.552 -18.020   9.303  1.00  0.00     0.185 C 
ATOM     13  OE1 GLU     4      -7.582 -18.816   9.199  1.00  0.00    -0.647 OA
ATOM     14  OE2 GLU     4      -9.566 -18.323   9.963  1.00  0.00    -0.647 OA
ENDBRANCH  11  12
ENDBRANCH  10  11
ENDBRANCH   9  10
BRANCH   9  15
ATOM     15  N   GLU     4      -6.664 -17.226   6.272  1.00  0.00    -0.229 NA
ATOM     16  C   PRO     3      -7.029 -17.714   5.092  1.00  0.00     0.272 C 
ATOM     17  O   PRO     3      -7.240 -17.008   4.104  1.00  0.00    -0.269 OA
BRANCH  16  18
ATOM     18  CA  PRO     3      -6.696 -19.190   4.865  1.00  0.00     0.165 C 
ATOM     19  N   PRO     3      -7.750 -19.966   4.177  1.00  0.00    -0.312 N 
ATOM     20  CD  PRO     3      -7.128 -20.896   3.200  1.00  0.00     0.105 C 
ATOM     21  C   ASP     2      -9.052 -19.930   4.516  1.00  0.00     0.257 C 
ATOM     22  CG  PRO     3      -5.622 -20.799   3.489  1.00  0.00     0.027 C 
ATOM     23  CB  PRO     3      -5.444 -19.376   4.011  1.00  0.00     0.034 C 
ATOM     24  O   ASP     2      -9.408 -19.395   5.577  1.00  0.00    -0.270 OA
BRANCH  21  25
ATOM     25  CA  ASP     2     -10.054 -20.849   3.783  1.00  0.00     0.195 C 
BRANCH  25  26
ATOM     26  CB  ASP     2     -11.275 -20.154   3.126  1.00  0.00     0.132 C 
BRANCH  26  27
ATOM     27  CG  ASP     2     -11.653 -20.861   1.811  1.00  0.00     0.188 C 
ATOM     28  OD2 ASP     2     -11.427 -20.207   0.761  1.00  0.00    -0.647 OA
ATOM     29  OD1 ASP     2     -12.610 -21.673   1.862  1.00  0.00    -0.647 OA
ENDBRANCH  26  27
ENDBRANCH  25  26
BRANCH  25  30
ATOM     30  N   ASP     2     -10.691 -21.814   4.697  1.00  0.00    -0.228 NA
ATOM     31  C   TYR     1     -10.596 -23.122   4.647  1.00  0.00     0.289 C 
ATOM     32  O   TYR     1      -9.861 -23.805   3.927  1.00  0.00    -0.268 OA
BRANCH  31  33
ATOM     33  CA  TYR     1     -11.561 -23.801   5.614  1.00  0.00     0.385 C 
ATOM     34  N   TYR     1     -12.636 -24.419   4.819  1.00  0.00     0.626 N 
BRANCH  33  35
ATOM     35  CB  TYR     1     -10.760 -24.828   6.411  1.00  0.00     0.075 C 
BRANCH  35  36
ATOM     36  CG  TYR     1     -11.110 -24.834   7.907  1.00  0.00    -0.019 A 
ATOM     37  CD2 TYR     1     -12.122 -24.034   8.415  1.00  0.00    -0.002 A 
ATOM     38  CE2 TYR     1     -12.508 -24.157   9.741  1.00  0.00     0.027 A 
ATOM     39  CZ  TYR     1     -11.862 -25.088  10.554  1.00  0.00     0.131 A 
ATOM     40  CE1 TYR     1     -10.825 -25.853  10.051  1.00  0.00     0.027 A 
ATOM     41  OH  TYR     1     -12.339 -25.360  11.786  1.00  0.00    -0.190 OA
ATOM     42  CD1 TYR     1     -10.439 -25.730   8.725  1.00  0.00    -0.002 A 
ENDBRANCH  35  36
ENDBRANCH  33  35
ENDBRANCH  31  33
ENDBRANCH  25  30
ENDBRANCH  21  25
ENDBRANCH  16  18
ENDBRANCH   9  15
ENDBRANCH   7   9
ENDBRANCH   5   6
BRANCH   5  43
ATOM     43  CB  TYR     5      -2.788 -14.986   8.965  1.00  0.00     0.060 C 
BRANCH  43  44
ATOM     44  CG  TYR     5      -3.940 -15.386   9.902  1.00  0.00    -0.020 A 
ATOM     45  CD2 TYR     5      -4.752 -14.417  10.477  1.00  0.00    -0.002 A 
ATOM     46  CE2 TYR     5      -5.797 -14.789  11.318  1.00  0.00     0.027 A 
ATOM     47  CZ  TYR     5      -6.029 -16.130  11.584  1.00  0.00     0.131 A 
ATOM     48  CE1 TYR     5      -5.231 -17.106  10.998  1.00  0.00     0.027 A 
ATOM     49  OH  TYR     5      -6.948 -16.491  12.505  1.00  0.00    -0.190 OA
ATOM     50  CD1 TYR     5      -4.179 -16.731  10.163  1.00  0.00    -0.002 A 
ENDBRANCH  43  44
ENDBRANCH   5  43
ENDBRANCH   3   5
ENDBRANCH   1   2
BRANCH   1  51
ATOM     51  CB  ARG     6      -0.403 -19.391   8.029  1.00  0.00     0.036 C 
BRANCH  51  52
ATOM     52  CG  ARG     6       1.097 -19.173   8.240  1.00  0.00     0.029 C 
BRANCH  52  53
ATOM     53  CD  ARG     6       1.880 -20.410   7.808  1.00  0.00     0.145 C 
BRANCH  53  54
ATOM     54  NE  ARG     6       3.271 -20.065   7.475  1.00  0.00    -0.083 NA
ATOM     55  CZ  ARG     6       4.336 -20.252   8.277  1.00  0.00     0.782 C 
ATOM     56  NH2 ARG     6       5.546 -19.825   7.909  1.00  0.00     0.063 N 
ATOM     57  NH1 ARG     6       4.182 -20.786   9.484  1.00  0.00     0.063 N 
ENDBRANCH  53  54
ENDBRANCH  52  53
ENDBRANCH  51  52
ENDBRANCH   1  51
BRANCH   1  58
ATOM     58  C   ARG     6      -1.655 -19.486   5.921  1.00  0.00     0.274 C 
ATOM     59  N   ASN     7      -2.001 -20.676   6.405  1.00  0.00    -0.228 NA
ATOM     60  O   ARG     6      -1.819 -19.120   4.757  1.00  0.00    -0.268 OA
BRANCH  59  61
ATOM     61  CA  ASN     7      -2.731 -21.693   5.620  1.00  0.00     0.196 C 
BRANCH  61  62
ATOM     62  C   ASN     7      -3.884 -22.315   6.432  1.00  0.00     0.275 C 
ATOM     63  N   PHE     8      -4.722 -23.128   5.771  1.00  0.00    -0.228 NA
ATOM     64  O   ASN     7      -3.752 -22.358   7.640  1.00  0.00    -0.268 OA
BRANCH  63  65
ATOM     65  CA  PHE     8      -5.835 -23.886   6.393  1.00  0.00     0.191 C 
BRANCH  65  66
ATOM     66  CB  PHE     8      -7.089 -23.000   6.375  1.00  0.00     0.060 C 
BRANCH  66  67
ATOM     67  CG  PHE     8      -7.735 -22.782   7.756  1.00  0.00    -0.020 A 
ATOM     68  CD1 PHE     8      -7.291 -23.512   8.851  1.00  0.00    -0.004 A 
ATOM     69  CE1 PHE     8      -7.944 -23.388  10.077  1.00  0.00    -0.000 A 
ATOM     70  CZ  PHE     8      -9.021 -22.526  10.200  1.00  0.00    -0.000 A 
ATOM     71  CE2 PHE     8      -9.459 -21.784   9.107  1.00  0.00    -0.000 A 
ATOM     72  CD2 PHE     8      -8.806 -21.908   7.881  1.00  0.00    -0.004 A 
ENDBRANCH  66  67
ENDBRANCH  65  66
BRANCH  65  73
ATOM     73  C   PHE     8      -6.108 -25.274   5.772  1.00  0.00     0.275 C 
ATOM     74  N   TRP     9      -7.341 -25.487   5.310  1.00  0.00    -0.228 NA
ATOM     75  O   PHE     8      -5.313 -26.205   5.926  1.00  0.00    -0.268 OA
BRANCH  74  76
ATOM     76  CA  TRP     9      -7.707 -26.725   4.580  1.00  0.00     0.191 C 
BRANCH  76  77
ATOM     77  CB  TRP     9      -6.860 -26.814   3.300  1.00  0.00     0.062 C 
BRANCH  77  78
ATOM     78  CG  TRP     9      -7.090 -25.645   2.343  1.00  0.00     0.001 A 
ATOM     79  CD1 TRP     9      -8.114 -25.511   1.505  1.00  0.00     0.095 A 
ATOM     80  NE1 TRP     9      -7.853 -24.550   0.628  1.00  0.00    -0.244 NA
ATOM     81  CE2 TRP     9      -6.665 -24.024   0.888  1.00  0.00     0.081 A 
ATOM     82  CD2 TRP     9      -6.134 -24.705   1.972  1.00  0.00     0.015 A 
ATOM     83  CZ2 TRP     9      -5.891 -23.065   0.234  1.00  0.00     0.019 A 
ATOM     84  CE3 TRP     9      -4.839 -24.456   2.402  1.00  0.00     0.001 A 
ATOM     85  CZ3 TRP     9      -4.060 -23.510   1.743  1.00  0.00     0.000 A 
ATOM     86  CH2 TRP     9      -4.600 -22.804   0.670  1.00  0.00     0.002 A 
ENDBRANCH  77  78
ENDBRANCH  76  77
BRANCH  76  87
ATOM     87  C   TRP     9      -7.607 -28.019   5.420  1.00  0.00     0.275 C 
ATOM     88  O   TRP     9      -6.930 -28.968   5.037  1.00  0.00    -0.268 OA
ATOM     89  N   GLY    10      -8.210 -27.996   6.608  1.00  0.00    -0.226 NA
BRANCH  89  90
ATOM     90  CA  GLY    10      -8.191 -29.124   7.579  1.00  0.00     0.218 C 
BRANCH  90  91
ATOM     91  C   GLY    10      -7.576 -28.829   8.957  1.00  0.00     0.277 C 
ATOM     92  N   CYS    11      -6.490 -29.541   9.253  1.00  0.00    -0.228 NA
ATOM     93  O   GLY    10      -8.166 -28.119   9.763  1.00  0.00    -0.268 OA
BRANCH  92  94
ATOM     94  CA  CYS    11      -5.685 -29.448  10.492  1.00  0.00     0.198 C 
BRANCH  94  95
ATOM     95  C   CYS    11      -4.750 -28.229  10.364  1.00  0.00     0.275 C 
ATOM     96  O   CYS    11      -4.099 -28.083   9.336  1.00  0.00    -0.268 OA
ATOM     97  N   GLY    12      -4.564 -27.521  11.468  1.00  0.00    -0.225 NA
BRANCH  97  98
ATOM     98  CA  GLY    12      -3.691 -26.338  11.524  1.00  0.00     0.226 C 
BRANCH  98  99
ATOM     99  C   GLY    12      -2.647 -26.567  12.642  1.00  0.00     0.211 C 
ATOM    100  O1  GLY    12      -2.016 -25.556  13.040  1.00  0.00    -0.646 OA
ATOM    101  O2  GLY    12      -2.526 -27.720  13.095  1.00  0.00    -0.646 OA
ENDBRANCH  98  99
ENDBRANCH  97  98
ENDBRANCH  94  95
BRANCH  94 102
ATOM    102  CB  CYS    11      -4.766 -30.661  10.614  1.00  0.00     0.103 C 
ATOM    103  SG  CYS    11      -4.463 -31.277  12.315  1.00  0.00    -0.080 SA
ENDBRANCH  94 102
ENDBRANCH  92  94
ENDBRANCH  90  91
ENDBRANCH  89  90
ENDBRANCH  76  87
ENDBRANCH  74  76
ENDBRANCH  65  73
ENDBRANCH  63  65
ENDBRANCH  61  62
BRANCH  61 104
ATOM    104  CB  ASN     7      -1.783 -22.780   5.098  1.00  0.00     0.126 C 
BRANCH 104 105
ATOM    105  CG  ASN     7      -0.391 -22.795   5.757  1.00  0.00     0.276 C 
ATOM    106  ND2 ASN     7       0.600 -22.346   5.021  1.00  0.00    -0.107 N 
ATOM    107  OD1 ASN     7      -0.126 -23.326   6.828  1.00  0.00    -0.269 OA
ENDBRANCH 104 105
ENDBRANCH  61 104
ENDBRANCH  59  61
ENDBRANCH   1  58
TORSDOF 42
ENDMDL
MODEL 5
REMARK VINA RESULT:      -4.5      3.087      8.520
REMARK WARNING: 32 MAX_TORS EXCEEDED!!!
REMARK  42 active torsions:
REMARK  status: ('A' for Active; 'I' for Inactive)
REMARK    1  A    between atoms: CA_2  and  CB_3 
REMARK    2  A    between atoms: CA_2  and  C_11 
REMARK    3  A    between atoms: CB_3  and  CG_4 
REMARK       I    between atoms: C_11  and  N_13 
REMARK    4  A    between atoms: N_13  and  CA_14 
REMARK    5  A    between atoms: CA_14  and  CB_15 
REMARK    6  A    between atoms: CA_14  and  C_19 
REMARK    7  A    between atoms: CB_15  and  CG_16 
REMARK       I    between atoms: C_19  and  N_21 
REMARK    8  A    between atoms: CA_22  and  C_26 
REMARK       I    between atoms: C_26  and  N_28 
REMARK    9  A    between atoms: N_28  and  CA_29 
REMARK   10  A    between atoms: CA_29  and  C_35 
REMARK   11  A    between atoms: CA_29  and  CB_30 
REMARK   12  A    between atoms: CB_30  and  CG_31 
REMARK   13  A    between atoms: CG_31  and  CD_32 
REMARK       I    between atoms: C_35  and  N_37 
REMARK   14  A    between atoms: N_37  and  CA_38 
REMARK   15  A    between atoms: CA_38  and  CB_39 
REMARK   16  A    between atoms: CA_38  and  C_47 
REMARK   17  A    between atoms: CB_39  and  CG_40 
REMARK       I    between atoms: C_47  and  N_49 
REMARK   18  A    between atoms: N_49  and  CA_50 
REMARK   19  A    between atoms: CA_50  and  CB_51 
REMARK   20  A    between atoms: CA_50  and  C_58 
REMARK   21  A    between atoms: CB_51  and  CG_52 
REMARK   22  A    between atoms: CG_52  and  CD_53 
REMARK   23  A    between atoms: CD_53  and  NE_54 
REMARK       I    between atoms: C_58  and  N_60 
REMARK   24  A    between atoms: N_60  and  CA_61 
REMARK   25  A    between atoms: CA_61  and  C_66 
REMARK   26  A    between atoms: CA_61  and  CB_62 
REMARK   27  A    between atoms: CB_62  and  CG_63 
REMARK       I    between atoms: C_66  and  N_68 
REMARK   28  A    between atoms: N_68  and  CA_69 
REMARK   29  A    between atoms: CA_69  and  CB_70 
REMARK   30  A    between atoms: CA_69  and  C_77 
REMARK   31  A    between atoms: CB_70  and  CG_71 
REMARK       I    between atoms: C_77  and  N_79 
REMARK   32  A    between atoms: N_79  and  CA_80 
REMARK   33  A    between atoms: CA_80  and  CB_81 
REMARK   34  A    between atoms: CA_80  and  C_91 
REMARK   35  A    between atoms: CB_81  and  CG_82 
REMARK       I    between atoms: C_91  and  N_93 
REMARK   36  A    between atoms: N_93  and  CA_94 
REMARK   37  A    between atoms: CA_94  and  C_95 
REMARK       I    between atoms: C_95  and  N_97 
REMARK   38  A    between atoms: N_97  and  CA_98 
REMARK   39  A    between atoms: CA_98  and  C_101 
REMARK   40  A    between atoms: CA_98  and  CB_99 
REMARK       I    between atoms: C_101  and  N_103 
REMARK   41  A    between atoms: N_103  and  CA_104 
REMARK   42  A    between atoms: CA_104  and  C_105 
ROOT
ATOM      1  CA  ARG     6      -4.449 -16.638   7.814  1.00  0.00     0.186 C 
ENDROOT
BRANCH   1   2
ATOM      2  N   ARG     6      -5.525 -16.547   6.799  1.00  0.00    -0.229 NA
ATOM      3  C   TYR     5      -6.069 -15.379   6.432  1.00  0.00     0.275 C 
ATOM      4  O   TYR     5      -5.690 -14.303   6.894  1.00  0.00    -0.268 OA
BRANCH   3   5
ATOM      5  CA  TYR     5      -7.124 -15.418   5.315  1.00  0.00     0.191 C 
BRANCH   5   6
ATOM      6  N   TYR     5      -8.477 -15.808   5.791  1.00  0.00    -0.228 NA
ATOM      7  C   GLU     4      -9.079 -16.953   5.431  1.00  0.00     0.274 C 
ATOM      8  O   GLU     4      -8.507 -17.830   4.797  1.00  0.00    -0.268 OA
BRANCH   7   9
ATOM      9  CA  GLU     4     -10.420 -17.261   6.130  1.00  0.00     0.187 C 
BRANCH   9  10
ATOM     10  CB  GLU     4     -11.035 -15.961   6.673  1.00  0.00     0.045 C 
BRANCH  10  11
ATOM     11  CG  GLU     4     -12.022 -16.114   7.852  1.00  0.00     0.100 C 
BRANCH  11  12
ATOM     12  CD  GLU     4     -11.612 -15.362   9.117  1.00  0.00     0.185 C 
ATOM     13  OE1 GLU     4     -10.568 -14.660   9.060  1.00  0.00    -0.647 OA
ATOM     14  OE2 GLU     4     -12.014 -15.828  10.202  1.00  0.00    -0.647 OA
ENDBRANCH  11  12
ENDBRANCH  10  11
ENDBRANCH   9  10
BRANCH   9  15
ATOM     15  N   GLU     4     -10.289 -18.222   7.242  1.00  0.00    -0.229 NA
ATOM     16  C   PRO     3      -9.344 -18.275   8.173  1.00  0.00     0.272 C 
ATOM     17  O   PRO     3      -8.636 -17.313   8.474  1.00  0.00    -0.269 OA
BRANCH  16  18
ATOM     18  CA  PRO     3      -9.496 -19.404   9.194  1.00  0.00     0.165 C 
ATOM     19  N   PRO     3      -8.273 -20.202   9.426  1.00  0.00    -0.312 N 
ATOM     20  CD  PRO     3      -8.142 -20.506  10.874  1.00  0.00     0.105 C 
ATOM     21  C   ASP     2      -7.501 -20.696   8.441  1.00  0.00     0.257 C 
ATOM     22  CG  PRO     3      -9.472 -20.035  11.482  1.00  0.00     0.027 C 
ATOM     23  CB  PRO     3      -9.901 -18.887  10.573  1.00  0.00     0.034 C 
ATOM     24  O   ASP     2      -7.900 -20.687   7.267  1.00  0.00    -0.270 OA
BRANCH  21  25
ATOM     25  CA  ASP     2      -6.291 -21.590   8.799  1.00  0.00     0.195 C 
BRANCH  25  26
ATOM     26  CB  ASP     2      -5.075 -21.521   7.840  1.00  0.00     0.132 C 
BRANCH  26  27
ATOM     27  CG  ASP     2      -3.766 -21.767   8.612  1.00  0.00     0.188 C 
ATOM     28  OD2 ASP     2      -3.143 -22.814   8.302  1.00  0.00    -0.647 OA
ATOM     29  OD1 ASP     2      -3.708 -21.316   9.783  1.00  0.00    -0.647 OA
ENDBRANCH  26  27
ENDBRANCH  25  26
BRANCH  25  30
ATOM     30  N   ASP     2      -6.635 -23.022   8.775  1.00  0.00    -0.228 NA
ATOM     31  C   TYR     1      -6.516 -23.874   9.767  1.00  0.00     0.289 C 
ATOM     32  O   TYR     1      -6.228 -23.636  10.944  1.00  0.00    -0.268 OA
BRANCH  31  33
ATOM     33  CA  TYR     1      -6.760 -25.311   9.317  1.00  0.00     0.385 C 
ATOM     34  N   TYR     1      -5.448 -25.947   9.108  1.00  0.00     0.626 N 
BRANCH  33  35
ATOM     35  CB  TYR     1      -7.574 -25.998  10.410  1.00  0.00     0.075 C 
BRANCH  35  36
ATOM     36  CG  TYR     1      -9.043 -25.549  10.437  1.00  0.00    -0.019 A 
ATOM     37  CD2 TYR     1      -9.876 -25.735   9.345  1.00  0.00    -0.002 A 
ATOM     38  CE2 TYR     1     -11.229 -25.445   9.441  1.00  0.00     0.027 A 
ATOM     39  CZ  TYR     1     -11.736 -24.960  10.646  1.00  0.00     0.131 A 
ATOM     40  CE1 TYR     1     -10.892 -24.738  11.719  1.00  0.00     0.027 A 
ATOM     41  OH  TYR     1     -13.068 -24.849  10.826  1.00  0.00    -0.190 OA
ATOM     42  CD1 TYR     1      -9.539 -25.027  11.623  1.00  0.00    -0.002 A 
ENDBRANCH  35  36
ENDBRANCH  33  35
ENDBRANCH  31  33
ENDBRANCH  25  30
ENDBRANCH  21  25
ENDBRANCH  16  18
ENDBRANCH   9  15
ENDBRANCH   7   9
ENDBRANCH   5   6
BRANCH   5  43
ATOM     43  CB  TYR     5      -7.192 -14.070   4.577  1.00  0.00     0.060 C 
BRANCH  43  44
ATOM     44  CG  TYR     5      -8.530 -13.873   3.845  1.00  0.00    -0.020 A 
ATOM     45  CD2 TYR     5      -8.823 -14.602   2.699  1.00  0.00    -0.002 A 
ATOM     46  CE2 TYR     5     -10.040 -14.422   2.048  1.00  0.00     0.027 A 
ATOM     47  CZ  TYR     5     -10.963 -13.513   2.541  1.00  0.00     0.131 A 
ATOM     48  CE1 TYR     5     -10.684 -12.792   3.697  1.00  0.00     0.027 A 
ATOM     49  OH  TYR     5     -12.082 -13.231   1.840  1.00  0.00    -0.190 OA
ATOM     50  CD1 TYR     5      -9.460 -12.968   4.344  1.00  0.00    -0.002 A 
ENDBRANCH  43  44
ENDBRANCH   5  43
ENDBRANCH   3   5
ENDBRANCH   1   2
BRANCH   1  51
ATOM     51  CB  ARG     6      -4.554 -17.891   8.679  1.00  0.00     0.036 C 
BRANCH  51  52
ATOM     52  CG  ARG     6      -5.471 -17.724   9.893  1.00  0.00     0.029 C 
BRANCH  52  53
ATOM     53  CD  ARG     6      -5.757 -16.246  10.144  1.00  0.00     0.145 C 
BRANCH  53  54
ATOM     54  NE  ARG     6      -5.002 -15.754  11.309  1.00  0.00    -0.083 NA
ATOM     55  CZ  ARG     6      -4.219 -14.658  11.325  1.00  0.00     0.782 C 
ATOM     56  NH2 ARG     6      -3.511 -14.348  12.413  1.00  0.00     0.063 N 
ATOM     57  NH1 ARG     6      -4.073 -13.921  10.230  1.00  0.00     0.063 N 
ENDBRANCH  53  54
ENDBRANCH  52  53
ENDBRANCH  51  52
ENDBRANCH   1  51
BRANCH   1  58
ATOM     58  C   ARG     6      -3.050 -16.655   7.186  1.00  0.00     0.274 C 
ATOM     59  N   ASN     7      -2.470 -17.849   7.100  1.00  0.00    -0.228 NA
ATOM     60  O   ARG     6      -2.548 -15.595   6.809  1.00  0.00    -0.268 OA
BRANCH  59  61
ATOM     61  CA  ASN     7      -1.169 -18.077   6.438  1.00  0.00     0.196 C 
BRANCH  61  62
ATOM     62  C   ASN     7      -1.194 -19.341   5.557  1.00  0.00     0.275 C 
ATOM     63  N   PHE     8      -2.381 -19.703   5.048  1.00  0.00    -0.228 NA
ATOM     64  O   ASN     7      -0.139 -19.696   5.068  1.00  0.00    -0.268 OA
BRANCH  63  65
ATOM     65  CA  PHE     8      -2.594 -20.834   4.113  1.00  0.00     0.191 C 
BRANCH  65  66
ATOM     66  CB  PHE     8      -2.661 -22.130   4.932  1.00  0.00     0.060 C 
BRANCH  66  67
ATOM     67  CG  PHE     8      -1.487 -23.098   4.690  1.00  0.00    -0.020 A 
ATOM     68  CD1 PHE     8      -1.261 -24.146   5.571  1.00  0.00    -0.004 A 
ATOM     69  CE1 PHE     8      -0.140 -24.960   5.409  1.00  0.00    -0.000 A 
ATOM     70  CZ  PHE     8       0.734 -24.725   4.360  1.00  0.00    -0.000 A 
ATOM     71  CE2 PHE     8       0.502 -23.683   3.468  1.00  0.00    -0.000 A 
ATOM     72  CD2 PHE     8      -0.619 -22.870   3.630  1.00  0.00    -0.004 A 
ENDBRANCH  66  67
ENDBRANCH  65  66
BRANCH  65  73
ATOM     73  C   PHE     8      -3.814 -20.686   3.177  1.00  0.00     0.275 C 
ATOM     74  N   TRP     9      -4.342 -21.818   2.706  1.00  0.00    -0.228 NA
ATOM     75  O   PHE     8      -4.116 -19.591   2.697  1.00  0.00    -0.268 OA
BRANCH  74  76
ATOM     76  CA  TRP     9      -5.587 -21.830   1.899  1.00  0.00     0.191 C 
BRANCH  76  77
ATOM     77  CB  TRP     9      -5.499 -22.969   0.869  1.00  0.00     0.062 C 
BRANCH  77  78
ATOM     78  CG  TRP     9      -4.072 -23.464   0.640  1.00  0.00     0.001 A 
ATOM     79  CD1 TRP     9      -3.345 -23.270  -0.457  1.00  0.00     0.095 A 
ATOM     80  NE1 TRP     9      -2.287 -24.071  -0.441  1.00  0.00    -0.244 NA
ATOM     81  CE2 TRP     9      -2.291 -24.788   0.673  1.00  0.00     0.081 A 
ATOM     82  CD2 TRP     9      -3.425 -24.441   1.390  1.00  0.00     0.015 A 
ATOM     83  CZ2 TRP     9      -1.476 -25.820   1.138  1.00  0.00     0.019 A 
ATOM     84  CE3 TRP     9      -3.766 -25.117   2.552  1.00  0.00     0.001 A 
ATOM     85  CZ3 TRP     9      -2.961 -26.155   3.010  1.00  0.00     0.000 A 
ATOM     86  CH2 TRP     9      -1.806 -26.489   2.307  1.00  0.00     0.002 A 
ENDBRANCH  77  78
ENDBRANCH  76  77
BRANCH  76  87
ATOM     87  C   TRP     9      -6.888 -21.912   2.729  1.00  0.00     0.275 C 
ATOM     88  O   TRP     9      -6.896 -21.610   3.919  1.00  0.00    -0.268 OA
ATOM     89  N   GLY    10      -7.995 -22.227   2.058  1.00  0.00    -0.226 NA
BRANCH  89  90
ATOM     90  CA  GLY    10      -9.350 -22.313   2.669  1.00  0.00     0.218 C 
BRANCH  90  91
ATOM     91  C   GLY    10      -9.686 -23.623   3.400  1.00  0.00     0.277 C 
ATOM     92  N   CYS    11      -9.764 -23.524   4.726  1.00  0.00    -0.228 NA
ATOM     93  O   GLY    10      -9.701 -24.689   2.795  1.00  0.00    -0.268 OA
BRANCH  92  94
ATOM     94  CA  CYS    11     -10.093 -24.612   5.674  1.00  0.00     0.198 C 
BRANCH  94  95
ATOM     95  C   CYS    11      -8.843 -25.500   5.835  1.00  0.00     0.275 C 
ATOM     96  O   CYS    11      -7.756 -24.969   6.032  1.00  0.00    -0.268 OA
ATOM     97  N   GLY    12      -9.001 -26.784   5.549  1.00  0.00    -0.225 NA
BRANCH  97  98
ATOM     98  CA  GLY    12      -7.908 -27.765   5.634  1.00  0.00     0.226 C 
BRANCH  98  99
ATOM     99  C   GLY    12      -7.942 -28.397   7.045  1.00  0.00     0.211 C 
ATOM    100  O1  GLY    12      -6.835 -28.721   7.545  1.00  0.00    -0.646 OA
ATOM    101  O2  GLY    12      -9.049 -28.510   7.603  1.00  0.00    -0.646 OA
ENDBRANCH  98  99
ENDBRANCH  97  98
ENDBRANCH  94  95
BRANCH  94 102
ATOM    102  CB  CYS    11     -11.169 -25.519   5.081  1.00  0.00     0.103 C 
ATOM    103  SG  CYS    11     -12.802 -25.487   5.916  1.00  0.00    -0.080 SA
ENDBRANCH  94 102
ENDBRANCH  92  94
ENDBRANCH  90  91
ENDBRANCH  89  90
ENDBRANCH  76  87
ENDBRANCH  74  76
ENDBRANCH  65  73
ENDBRANCH  63  65
ENDBRANCH  61  62
BRANCH  61 104
ATOM    104  CB  ASN     7      -0.029 -18.148   7.462  1.00  0.00     0.126 C 
BRANCH 104 105
ATOM    105  CG  ASN     7       0.172 -19.530   8.112  1.00  0.00     0.276 C 
ATOM    106  ND2 ASN     7      -0.735 -19.891   8.991  1.00  0.00    -0.107 N 
ATOM    107  OD1 ASN     7       1.171 -20.227   7.988  1.00  0.00    -0.269 OA
ENDBRANCH 104 105
ENDBRANCH  61 104
ENDBRANCH  59  61
ENDBRANCH   1  58
TORSDOF 42
ENDMDL
MODEL 6
REMARK VINA RESULT:      -4.5      2.143      3.598
REMARK WARNING: 32 MAX_TORS EXCEEDED!!!
REMARK  42 active torsions:
REMARK  status: ('A' for Active; 'I' for Inactive)
REMARK    1  A    between atoms: CA_2  and  CB_3 
REMARK    2  A    between atoms: CA_2  and  C_11 
REMARK    3  A    between atoms: CB_3  and  CG_4 
REMARK       I    between atoms: C_11  and  N_13 
REMARK    4  A    between atoms: N_13  and  CA_14 
REMARK    5  A    between atoms: CA_14  and  CB_15 
REMARK    6  A    between atoms: CA_14  and  C_19 
REMARK    7  A    between atoms: CB_15  and  CG_16 
REMARK       I    between atoms: C_19  and  N_21 
REMARK    8  A    between atoms: CA_22  and  C_26 
REMARK       I    between atoms: C_26  and  N_28 
REMARK    9  A    between atoms: N_28  and  CA_29 
REMARK   10  A    between atoms: CA_29  and  C_35 
REMARK   11  A    between atoms: CA_29  and  CB_30 
REMARK   12  A    between atoms: CB_30  and  CG_31 
REMARK   13  A    between atoms: CG_31  and  CD_32 
REMARK       I    between atoms: C_35  and  N_37 
REMARK   14  A    between atoms: N_37  and  CA_38 
REMARK   15  A    between atoms: CA_38  and  CB_39 
REMARK   16  A    between atoms: CA_38  and  C_47 
REMARK   17  A    between atoms: CB_39  and  CG_40 
REMARK       I    between atoms: C_47  and  N_49 
REMARK   18  A    between atoms: N_49  and  CA_50 
REMARK   19  A    between atoms: CA_50  and  CB_51 
REMARK   20  A    between atoms: CA_50  and  C_58 
REMARK   21  A    between atoms: CB_51  and  CG_52 
REMARK   22  A    between atoms: CG_52  and  CD_53 
REMARK   23  A    between atoms: CD_53  and  NE_54 
REMARK       I    between atoms: C_58  and  N_60 
REMARK   24  A    between atoms: N_60  and  CA_61 
REMARK   25  A    between atoms: CA_61  and  C_66 
REMARK   26  A    between atoms: CA_61  and  CB_62 
REMARK   27  A    between atoms: CB_62  and  CG_63 
REMARK       I    between atoms: C_66  and  N_68 
REMARK   28  A    between atoms: N_68  and  CA_69 
REMARK   29  A    between atoms: CA_69  and  CB_70 
REMARK   30  A    between atoms: CA_69  and  C_77 
REMARK   31  A    between atoms: CB_70  and  CG_71 
REMARK       I    between atoms: C_77  and  N_79 
REMARK   32  A    between atoms: N_79  and  CA_80 
REMARK   33  A    between atoms: CA_80  and  CB_81 
REMARK   34  A    between atoms: CA_80  and  C_91 
REMARK   35  A    between atoms: CB_81  and  CG_82 
REMARK       I    between atoms: C_91  and  N_93 
REMARK   36  A    between atoms: N_93  and  CA_94 
REMARK   37  A    between atoms: CA_94  and  C_95 
REMARK       I    between atoms: C_95  and  N_97 
REMARK   38  A    between atoms: N_97  and  CA_98 
REMARK   39  A    between atoms: CA_98  and  C_101 
REMARK   40  A    between atoms: CA_98  and  CB_99 
REMARK       I    between atoms: C_101  and  N_103 
REMARK   41  A    between atoms: N_103  and  CA_104 
REMARK   42  A    between atoms: CA_104  and  C_105 
ROOT
ATOM      1  CA  ARG     6      -3.645 -20.441   3.626  1.00  0.00     0.186 C 
ENDROOT
BRANCH   1   2
ATOM      2  N   ARG     6      -2.932 -19.518   4.540  1.00  0.00    -0.229 NA
ATOM      3  C   TYR     5      -3.054 -19.590   5.872  1.00  0.00     0.275 C 
ATOM      4  O   TYR     5      -3.744 -20.447   6.424  1.00  0.00    -0.268 OA
BRANCH   3   5
ATOM      5  CA  TYR     5      -2.202 -18.621   6.707  1.00  0.00     0.191 C 
BRANCH   5   6
ATOM      6  N   TYR     5      -2.911 -17.365   7.065  1.00  0.00    -0.228 NA
ATOM      7  C   GLU     4      -2.390 -16.144   6.861  1.00  0.00     0.274 C 
ATOM      8  O   GLU     4      -1.352 -15.965   6.237  1.00  0.00    -0.268 OA
BRANCH   7   9
ATOM      9  CA  GLU     4      -3.321 -14.952   7.162  1.00  0.00     0.187 C 
BRANCH   9  10
ATOM     10  CB  GLU     4      -2.518 -13.815   7.815  1.00  0.00     0.045 C 
BRANCH  10  11
ATOM     11  CG  GLU     4      -2.567 -13.742   9.357  1.00  0.00     0.100 C 
BRANCH  11  12
ATOM     12  CD  GLU     4      -1.325 -14.298  10.053  1.00  0.00     0.185 C 
ATOM     13  OE1 GLU     4      -0.497 -13.466  10.508  1.00  0.00    -0.647 OA
ATOM     14  OE2 GLU     4      -0.968 -15.448   9.729  1.00  0.00    -0.647 OA
ENDBRANCH  11  12
ENDBRANCH  10  11
ENDBRANCH   9  10
BRANCH   9  15
ATOM     15  N   GLU     4      -4.448 -15.302   8.049  1.00  0.00    -0.229 NA
ATOM     16  C   PRO     3      -5.742 -15.080   7.856  1.00  0.00     0.272 C 
ATOM     17  O   PRO     3      -6.236 -14.882   6.744  1.00  0.00    -0.269 OA
BRANCH  16  18
ATOM     18  CA  PRO     3      -6.663 -15.569   8.976  1.00  0.00     0.165 C 
ATOM     19  N   PRO     3      -6.672 -17.033   9.179  1.00  0.00    -0.312 N 
ATOM     20  CD  PRO     3      -6.700 -17.336  10.632  1.00  0.00     0.105 C 
ATOM     21  C   ASP     2      -6.797 -17.929   8.182  1.00  0.00     0.257 C 
ATOM     22  CG  PRO     3      -6.929 -15.971  11.300  1.00  0.00     0.027 C 
ATOM     23  CB  PRO     3      -6.284 -14.981  10.334  1.00  0.00     0.034 C 
ATOM     24  O   ASP     2      -7.128 -17.559   7.046  1.00  0.00    -0.270 OA
BRANCH  21  25
ATOM     25  CA  ASP     2      -6.881 -19.435   8.520  1.00  0.00     0.195 C 
BRANCH  25  26
ATOM     26  CB  ASP     2      -7.971 -19.852   9.541  1.00  0.00     0.132 C 
BRANCH  26  27
ATOM     27  CG  ASP     2      -8.982 -20.812   8.886  1.00  0.00     0.188 C 
ATOM     28  OD2 ASP     2      -8.966 -21.992   9.318  1.00  0.00    -0.647 OA
ATOM     29  OD1 ASP     2      -9.293 -20.575   7.692  1.00  0.00    -0.647 OA
ENDBRANCH  26  27
ENDBRANCH  25  26
BRANCH  25  30
ATOM     30  N   ASP     2      -5.646 -19.930   9.151  1.00  0.00    -0.228 NA
ATOM     31  C   TYR     1      -5.215 -21.170   9.163  1.00  0.00     0.289 C 
ATOM     32  O   TYR     1      -5.668 -22.140   8.547  1.00  0.00    -0.268 OA
BRANCH  31  33
ATOM     33  CA  TYR     1      -4.019 -21.349  10.093  1.00  0.00     0.385 C 
ATOM     34  N   TYR     1      -4.469 -21.066  11.466  1.00  0.00     0.626 N 
BRANCH  33  35
ATOM     35  CB  TYR     1      -3.522 -22.783   9.925  1.00  0.00     0.075 C 
BRANCH  35  36
ATOM     36  CG  TYR     1      -2.151 -22.866   9.236  1.00  0.00    -0.019 A 
ATOM     37  CD2 TYR     1      -0.986 -23.053   9.965  1.00  0.00    -0.002 A 
ATOM     38  CE2 TYR     1       0.219 -23.261   9.312  1.00  0.00     0.027 A 
ATOM     39  CZ  TYR     1       0.244 -23.272   7.917  1.00  0.00     0.131 A 
ATOM     40  CE1 TYR     1      -0.914 -23.045   7.197  1.00  0.00     0.027 A 
ATOM     41  OH  TYR     1       1.358 -23.656   7.262  1.00  0.00    -0.190 OA
ATOM     42  CD1 TYR     1      -2.120 -22.837   7.850  1.00  0.00    -0.002 A 
ENDBRANCH  35  36
ENDBRANCH  33  35
ENDBRANCH  31  33
ENDBRANCH  25  30
ENDBRANCH  21  25
ENDBRANCH  16  18
ENDBRANCH   9  15
ENDBRANCH   7   9
ENDBRANCH   5   6
BRANCH   5  43
ATOM     43  CB  TYR     5      -1.672 -19.309   7.976  1.00  0.00     0.060 C 
BRANCH  43  44
ATOM     44  CG  TYR     5      -0.157 -19.562   7.914  1.00  0.00    -0.020 A 
ATOM     45  CD2 TYR     5       0.600 -19.615   9.078  1.00  0.00    -0.002 A 
ATOM     46  CE2 TYR     5       1.969 -19.853   9.012  1.00  0.00     0.027 A 
ATOM     47  CZ  TYR     5       2.583 -20.037   7.782  1.00  0.00     0.131 A 
ATOM     48  CE1 TYR     5       1.830 -20.003   6.614  1.00  0.00     0.027 A 
ATOM     49  OH  TYR     5       3.928 -20.128   7.699  1.00  0.00    -0.190 OA
ATOM     50  CD1 TYR     5       0.458 -19.756   6.682  1.00  0.00    -0.002 A 
ENDBRANCH  43  44
ENDBRANCH   5  43
ENDBRANCH   3   5
ENDBRANCH   1   2
BRANCH   1  51
ATOM     51  CB  ARG     6      -3.119 -21.871   3.697  1.00  0.00     0.036 C 
BRANCH  51  52
ATOM     52  CG  ARG     6      -1.606 -21.980   3.491  1.00  0.00     0.029 C 
BRANCH  52  53
ATOM     53  CD  ARG     6      -1.248 -23.338   2.895  1.00  0.00     0.145 C 
BRANCH  53  54
ATOM     54  NE  ARG     6      -2.453 -24.155   2.681  1.00  0.00    -0.083 NA
ATOM     55  CZ  ARG     6      -2.850 -24.668   1.500  1.00  0.00     0.782 C 
ATOM     56  NH2 ARG     6      -4.007 -25.326   1.401  1.00  0.00     0.063 N 
ATOM     57  NH1 ARG     6      -2.136 -24.451   0.401  1.00  0.00     0.063 N 
ENDBRANCH  53  54
ENDBRANCH  52  53
ENDBRANCH  51  52
ENDBRANCH   1  51
BRANCH   1  58
ATOM     58  C   ARG     6      -5.149 -20.512   3.920  1.00  0.00     0.274 C 
ATOM     59  N   ASN     7      -5.661 -21.736   4.014  1.00  0.00    -0.228 NA
ATOM     60  O   ARG     6      -5.787 -19.466   4.045  1.00  0.00    -0.268 OA
BRANCH  59  61
ATOM     61  CA  ASN     7      -7.066 -22.005   4.388  1.00  0.00     0.196 C 
BRANCH  61  62
ATOM     62  C   ASN     7      -7.193 -23.291   5.227  1.00  0.00     0.275 C 
ATOM     63  N   PHE     8      -6.263 -24.238   5.032  1.00  0.00    -0.228 NA
ATOM     64  O   ASN     7      -7.851 -23.224   6.247  1.00  0.00    -0.268 OA
BRANCH  63  65
ATOM     65  CA  PHE     8      -6.166 -25.503   5.801  1.00  0.00     0.191 C 
BRANCH  65  66
ATOM     66  CB  PHE     8      -5.364 -25.227   7.080  1.00  0.00     0.060 C 
BRANCH  66  67
ATOM     67  CG  PHE     8      -3.906 -25.723   7.036  1.00  0.00    -0.020 A 
ATOM     68  CD1 PHE     8      -3.220 -25.750   5.829  1.00  0.00    -0.004 A 
ATOM     69  CE1 PHE     8      -1.937 -26.293   5.773  1.00  0.00    -0.000 A 
ATOM     70  CZ  PHE     8      -1.349 -26.789   6.925  1.00  0.00    -0.000 A 
ATOM     71  CE2 PHE     8      -2.029 -26.751   8.137  1.00  0.00    -0.000 A 
ATOM     72  CD2 PHE     8      -3.312 -26.207   8.194  1.00  0.00    -0.004 A 
ENDBRANCH  66  67
ENDBRANCH  65  66
BRANCH  65  73
ATOM     73  C   PHE     8      -7.519 -26.183   6.110  1.00  0.00     0.275 C 
ATOM     74  N   TRP     9      -7.880 -26.229   7.394  1.00  0.00    -0.228 NA
ATOM     75  O   PHE     8      -8.096 -26.863   5.258  1.00  0.00    -0.268 OA
BRANCH  74  76
ATOM     76  CA  TRP     9      -9.206 -26.741   7.821  1.00  0.00     0.191 C 
BRANCH  76  77
ATOM     77  CB  TRP     9      -9.064 -27.388   9.208  1.00  0.00     0.062 C 
BRANCH  77  78
ATOM     78  CG  TRP     9      -7.693 -28.024   9.438  1.00  0.00     0.001 A 
ATOM     79  CD1 TRP     9      -7.396 -29.312   9.297  1.00  0.00     0.095 A 
ATOM     80  NE1 TRP     9      -6.218 -29.564   9.853  1.00  0.00    -0.244 NA
ATOM     81  CE2 TRP     9      -5.714 -28.445  10.350  1.00  0.00     0.081 A 
ATOM     82  CD2 TRP     9      -6.633 -27.433  10.119  1.00  0.00     0.015 A 
ATOM     83  CZ2 TRP     9      -4.570 -28.173  11.100  1.00  0.00     0.019 A 
ATOM     84  CE3 TRP     9      -6.435 -26.161  10.636  1.00  0.00     0.001 A 
ATOM     85  CZ3 TRP     9      -5.301 -25.892  11.395  1.00  0.00     0.000 A 
ATOM     86  CH2 TRP     9      -4.362 -26.899  11.607  1.00  0.00     0.002 A 
ENDBRANCH  77  78
ENDBRANCH  76  77
BRANCH  76  87
ATOM     87  C   TRP     9     -10.338 -25.689   7.796  1.00  0.00     0.275 C 
ATOM     88  O   TRP     9     -10.698 -25.127   8.826  1.00  0.00    -0.268 OA
ATOM     89  N   GLY    10     -10.816 -25.367   6.595  1.00  0.00    -0.226 NA
BRANCH  89  90
ATOM     90  CA  GLY    10     -11.874 -24.347   6.359  1.00  0.00     0.218 C 
BRANCH  90  91
ATOM     91  C   GLY    10     -13.203 -24.864   5.783  1.00  0.00     0.277 C 
ATOM     92  N   CYS    11     -13.460 -24.484   4.532  1.00  0.00    -0.228 NA
ATOM     93  O   GLY    10     -14.017 -25.430   6.504  1.00  0.00    -0.268 OA
BRANCH  92  94
ATOM     94  CA  CYS    11     -14.646 -24.849   3.726  1.00  0.00     0.198 C 
BRANCH  94  95
ATOM     95  C   CYS    11     -14.155 -25.560   2.449  1.00  0.00     0.275 C 
ATOM     96  O   CYS    11     -14.955 -25.788   1.549  1.00  0.00    -0.268 OA
ATOM     97  N   GLY    12     -12.929 -26.060   2.496  1.00  0.00    -0.225 NA
BRANCH  97  98
ATOM     98  CA  GLY    12     -12.313 -26.781   1.371  1.00  0.00     0.226 C 
BRANCH  98  99
ATOM     99  C   GLY    12     -12.256 -28.282   1.741  1.00  0.00     0.211 C 
ATOM    100  O1  GLY    12     -12.000 -29.083   0.807  1.00  0.00    -0.646 OA
ATOM    101  O2  GLY    12     -12.431 -28.593   2.934  1.00  0.00    -0.646 OA
ENDBRANCH  98  99
ENDBRANCH  97  98
ENDBRANCH  94  95
BRANCH  94 102
ATOM    102  CB  CYS    11     -15.363 -23.590   3.245  1.00  0.00     0.103 C 
ATOM    103  SG  CYS    11     -16.991 -23.244   4.017  1.00  0.00    -0.080 SA
ENDBRANCH  94 102
ENDBRANCH  92  94
ENDBRANCH  90  91
ENDBRANCH  89  90
ENDBRANCH  76  87
ENDBRANCH  74  76
ENDBRANCH  65  73
ENDBRANCH  63  65
ENDBRANCH  61  62
BRANCH  61 104
ATOM    104  CB  ASN     7      -7.968 -22.070   3.149  1.00  0.00     0.126 C 
BRANCH 104 105
ATOM    105  CG  ASN     7      -9.045 -20.971   3.074  1.00  0.00     0.276 C 
ATOM    106  ND2 ASN     7      -9.287 -20.324   4.191  1.00  0.00    -0.107 N 
ATOM    107  OD1 ASN     7      -9.780 -20.772   2.115  1.00  0.00    -0.269 OA
ENDBRANCH 104 105
ENDBRANCH  61 104
ENDBRANCH  59  61
ENDBRANCH   1  58
TORSDOF 42
ENDMDL
MODEL 7
REMARK VINA RESULT:      -4.5      2.548      4.738
REMARK WARNING: 32 MAX_TORS EXCEEDED!!!
REMARK  42 active torsions:
REMARK  status: ('A' for Active; 'I' for Inactive)
REMARK    1  A    between atoms: CA_2  and  CB_3 
REMARK    2  A    between atoms: CA_2  and  C_11 
REMARK    3  A    between atoms: CB_3  and  CG_4 
REMARK       I    between atoms: C_11  and  N_13 
REMARK    4  A    between atoms: N_13  and  CA_14 
REMARK    5  A    between atoms: CA_14  and  CB_15 
REMARK    6  A    between atoms: CA_14  and  C_19 
REMARK    7  A    between atoms: CB_15  and  CG_16 
REMARK       I    between atoms: C_19  and  N_21 
REMARK    8  A    between atoms: CA_22  and  C_26 
REMARK       I    between atoms: C_26  and  N_28 
REMARK    9  A    between atoms: N_28  and  CA_29 
REMARK   10  A    between atoms: CA_29  and  C_35 
REMARK   11  A    between atoms: CA_29  and  CB_30 
REMARK   12  A    between atoms: CB_30  and  CG_31 
REMARK   13  A    between atoms: CG_31  and  CD_32 
REMARK       I    between atoms: C_35  and  N_37 
REMARK   14  A    between atoms: N_37  and  CA_38 
REMARK   15  A    between atoms: CA_38  and  CB_39 
REMARK   16  A    between atoms: CA_38  and  C_47 
REMARK   17  A    between atoms: CB_39  and  CG_40 
REMARK       I    between atoms: C_47  and  N_49 
REMARK   18  A    between atoms: N_49  and  CA_50 
REMARK   19  A    between atoms: CA_50  and  CB_51 
REMARK   20  A    between atoms: CA_50  and  C_58 
REMARK   21  A    between atoms: CB_51  and  CG_52 
REMARK   22  A    between atoms: CG_52  and  CD_53 
REMARK   23  A    between atoms: CD_53  and  NE_54 
REMARK       I    between atoms: C_58  and  N_60 
REMARK   24  A    between atoms: N_60  and  CA_61 
REMARK   25  A    between atoms: CA_61  and  C_66 
REMARK   26  A    between atoms: CA_61  and  CB_62 
REMARK   27  A    between atoms: CB_62  and  CG_63 
REMARK       I    between atoms: C_66  and  N_68 
REMARK   28  A    between atoms: N_68  and  CA_69 
REMARK   29  A    between atoms: CA_69  and  CB_70 
REMARK   30  A    between atoms: CA_69  and  C_77 
REMARK   31  A    between atoms: CB_70  and  CG_71 
REMARK       I    between atoms: C_77  and  N_79 
REMARK   32  A    between atoms: N_79  and  CA_80 
REMARK   33  A    between atoms: CA_80  and  CB_81 
REMARK   34  A    between atoms: CA_80  and  C_91 
REMARK   35  A    between atoms: CB_81  and  CG_82 
REMARK       I    between atoms: C_91  and  N_93 
REMARK   36  A    between atoms: N_93  and  CA_94 
REMARK   37  A    between atoms: CA_94  and  C_95 
REMARK       I    between atoms: C_95  and  N_97 
REMARK   38  A    between atoms: N_97  and  CA_98 
REMARK   39  A    between atoms: CA_98  and  C_101 
REMARK   40  A    between atoms: CA_98  and  CB_99 
REMARK       I    between atoms: C_101  and  N_103 
REMARK   41  A    between atoms: N_103  and  CA_104 
REMARK   42  A    between atoms: CA_104  and  C_105 
ROOT
ATOM      1  CA  ARG     6      -4.045 -20.950   3.604  1.00  0.00     0.186 C 
ENDROOT
BRANCH   1   2
ATOM      2  N   ARG     6      -3.235 -20.042   4.449  1.00  0.00    -0.229 NA
ATOM      3  C   TYR     5      -3.468 -19.881   5.758  1.00  0.00     0.275 C 
ATOM      4  O   TYR     5      -4.352 -20.501   6.351  1.00  0.00    -0.268 OA
BRANCH   3   5
ATOM      5  CA  TYR     5      -2.507 -18.966   6.534  1.00  0.00     0.191 C 
BRANCH   5   6
ATOM      6  N   TYR     5      -3.114 -17.671   6.934  1.00  0.00    -0.228 NA
ATOM      7  C   GLU     4      -2.435 -16.512   6.940  1.00  0.00     0.274 C 
ATOM      8  O   GLU     4      -1.303 -16.408   6.484  1.00  0.00    -0.268 OA
BRANCH   7   9
ATOM      9  CA  GLU     4      -3.259 -15.245   7.247  1.00  0.00     0.187 C 
BRANCH   9  10
ATOM     10  CB  GLU     4      -2.318 -14.084   7.607  1.00  0.00     0.045 C 
BRANCH  10  11
ATOM     11  CG  GLU     4      -2.369 -13.593   9.070  1.00  0.00     0.100 C 
BRANCH  11  12
ATOM     12  CD  GLU     4      -1.299 -14.202   9.976  1.00  0.00     0.185 C 
ATOM     13  OE1 GLU     4      -0.506 -13.409  10.548  1.00  0.00    -0.647 OA
ATOM     14  OE2 GLU     4      -0.970 -15.382   9.740  1.00  0.00    -0.647 OA
ENDBRANCH  11  12
ENDBRANCH  10  11
ENDBRANCH   9  10
BRANCH   9  15
ATOM     15  N   GLU     4      -4.223 -15.430   8.349  1.00  0.00    -0.229 NA
ATOM     16  C   PRO     3      -5.476 -14.998   8.423  1.00  0.00     0.272 C 
ATOM     17  O   PRO     3      -6.148 -14.698   7.435  1.00  0.00    -0.269 OA
BRANCH  16  18
ATOM     18  CA  PRO     3      -6.215 -15.358   9.714  1.00  0.00     0.165 C 
ATOM     19  N   PRO     3      -6.382 -16.807   9.951  1.00  0.00    -0.312 N 
ATOM     20  CD  PRO     3      -6.164 -17.106  11.390  1.00  0.00     0.105 C 
ATOM     21  C   ASP     2      -6.821 -17.675   9.022  1.00  0.00     0.257 C 
ATOM     22  CG  PRO     3      -6.070 -15.724  12.054  1.00  0.00     0.027 C 
ATOM     23  CB  PRO     3      -5.500 -14.831  10.956  1.00  0.00     0.034 C 
ATOM     24  O   ASP     2      -7.317 -17.262   7.963  1.00  0.00    -0.270 OA
BRANCH  21  25
ATOM     25  CA  ASP     2      -7.040 -19.156   9.407  1.00  0.00     0.195 C 
BRANCH  25  26
ATOM     26  CB  ASP     2      -7.941 -19.422  10.640  1.00  0.00     0.132 C 
BRANCH  26  27
ATOM     27  CG  ASP     2      -9.077 -20.396  10.277  1.00  0.00     0.188 C 
ATOM     28  OD2 ASP     2      -8.984 -20.938   9.146  1.00  0.00    -0.647 OA
ATOM     29  OD1 ASP     2     -10.204 -20.162  10.780  1.00  0.00    -0.647 OA
ENDBRANCH  26  27
ENDBRANCH  25  26
BRANCH  25  30
ATOM     30  N   ASP     2      -5.781 -19.822   9.783  1.00  0.00    -0.228 NA
ATOM     31  C   TYR     1      -5.424 -21.050   9.487  1.00  0.00     0.289 C 
ATOM     32  O   TYR     1      -5.991 -21.846   8.731  1.00  0.00    -0.268 OA
BRANCH  31  33
ATOM     33  CA  TYR     1      -4.157 -21.470  10.225  1.00  0.00     0.385 C 
ATOM     34  N   TYR     1      -4.359 -21.200  11.658  1.00  0.00     0.626 N 
BRANCH  33  35
ATOM     35  CB  TYR     1      -3.931 -22.952   9.936  1.00  0.00     0.075 C 
BRANCH  35  36
ATOM     36  CG  TYR     1      -2.652 -23.219   9.127  1.00  0.00    -0.019 A 
ATOM     37  CD2 TYR     1      -2.685 -23.359   7.748  1.00  0.00    -0.002 A 
ATOM     38  CE2 TYR     1      -1.503 -23.463   7.030  1.00  0.00     0.027 A 
ATOM     39  CZ  TYR     1      -0.288 -23.433   7.712  1.00  0.00     0.131 A 
ATOM     40  CE1 TYR     1      -0.264 -23.334   9.092  1.00  0.00     0.027 A 
ATOM     41  OH  TYR     1       0.871 -23.344   7.029  1.00  0.00    -0.190 OA
ATOM     42  CD1 TYR     1      -1.445 -23.230   9.810  1.00  0.00    -0.002 A 
ENDBRANCH  35  36
ENDBRANCH  33  35
ENDBRANCH  31  33
ENDBRANCH  25  30
ENDBRANCH  21  25
ENDBRANCH  16  18
ENDBRANCH   9  15
ENDBRANCH   7   9
ENDBRANCH   5   6
BRANCH   5  43
ATOM     43  CB  TYR     5      -1.939 -19.686   7.769  1.00  0.00     0.060 C 
BRANCH  43  44
ATOM     44  CG  TYR     5      -0.402 -19.739   7.758  1.00  0.00    -0.020 A 
ATOM     45  CD2 TYR     5       0.318 -19.619   8.940  1.00  0.00    -0.002 A 
ATOM     46  CE2 TYR     5       1.708 -19.675   8.921  1.00  0.00     0.027 A 
ATOM     47  CZ  TYR     5       2.379 -19.853   7.720  1.00  0.00     0.131 A 
ATOM     48  CE1 TYR     5       1.665 -19.992   6.535  1.00  0.00     0.027 A 
ATOM     49  OH  TYR     5       3.726 -19.770   7.675  1.00  0.00    -0.190 OA
ATOM     50  CD1 TYR     5       0.271 -19.926   6.556  1.00  0.00    -0.002 A 
ENDBRANCH  43  44
ENDBRANCH   5  43
ENDBRANCH   3   5
ENDBRANCH   1   2
BRANCH   1  51
ATOM     51  CB  ARG     6      -4.056 -22.386   4.117  1.00  0.00     0.036 C 
BRANCH  51  52
ATOM     52  CG  ARG     6      -3.694 -23.423   3.051  1.00  0.00     0.029 C 
BRANCH  52  53
ATOM     53  CD  ARG     6      -2.384 -23.045   2.366  1.00  0.00     0.145 C 
BRANCH  53  54
ATOM     54  NE  ARG     6      -1.292 -23.941   2.783  1.00  0.00    -0.083 NA
ATOM     55  CZ  ARG     6      -0.210 -23.574   3.495  1.00  0.00     0.782 C 
ATOM     56  NH2 ARG     6       0.764 -24.451   3.748  1.00  0.00     0.063 N 
ATOM     57  NH1 ARG     6      -0.056 -22.312   3.880  1.00  0.00     0.063 N 
ENDBRANCH  53  54
ENDBRANCH  52  53
ENDBRANCH  51  52
ENDBRANCH   1  51
BRANCH   1  58
ATOM     58  C   ARG     6      -5.511 -20.508   3.505  1.00  0.00     0.274 C 
ATOM     59  N   ASN     7      -6.385 -21.469   3.216  1.00  0.00    -0.228 NA
ATOM     60  O   ARG     6      -5.796 -19.324   3.689  1.00  0.00    -0.268 OA
BRANCH  59  61
ATOM     61  CA  ASN     7      -7.846 -21.255   3.175  1.00  0.00     0.196 C 
BRANCH  61  62
ATOM     62  C   ASN     7      -8.554 -21.951   4.354  1.00  0.00     0.275 C 
ATOM     63  N   PHE     8      -8.579 -23.293   4.341  1.00  0.00    -0.228 NA
ATOM     64  O   ASN     7      -8.692 -21.307   5.376  1.00  0.00    -0.268 OA
BRANCH  63  65
ATOM     65  CA  PHE     8      -9.135 -24.141   5.423  1.00  0.00     0.191 C 
BRANCH  65  66
ATOM     66  CB  PHE     8      -8.224 -24.010   6.652  1.00  0.00     0.060 C 
BRANCH  66  67
ATOM     67  CG  PHE     8      -7.195 -25.145   6.806  1.00  0.00    -0.020 A 
ATOM     68  CD1 PHE     8      -7.286 -26.275   6.005  1.00  0.00    -0.004 A 
ATOM     69  CE1 PHE     8      -6.416 -27.346   6.214  1.00  0.00    -0.000 A 
ATOM     70  CZ  PHE     8      -5.457 -27.268   7.211  1.00  0.00    -0.000 A 
ATOM     71  CE2 PHE     8      -5.355 -26.131   8.005  1.00  0.00    -0.000 A 
ATOM     72  CD2 PHE     8      -6.224 -25.060   7.796  1.00  0.00    -0.004 A 
ENDBRANCH  66  67
ENDBRANCH  65  66
BRANCH  65  73
ATOM     73  C   PHE     8     -10.613 -23.865   5.776  1.00  0.00     0.275 C 
ATOM     74  N   TRP     9     -10.852 -23.375   6.994  1.00  0.00    -0.228 NA
ATOM     75  O   PHE     8     -11.526 -24.308   5.074  1.00  0.00    -0.268 OA
BRANCH  74  76
ATOM     76  CA  TRP     9     -12.207 -22.948   7.420  1.00  0.00     0.191 C 
BRANCH  76  77
ATOM     77  CB  TRP     9     -12.700 -23.894   8.527  1.00  0.00     0.062 C 
BRANCH  77  78
ATOM     78  CG  TRP     9     -11.584 -24.358   9.462  1.00  0.00     0.001 A 
ATOM     79  CD1 TRP     9     -10.996 -23.623  10.402  1.00  0.00     0.095 A 
ATOM     80  NE1 TRP     9      -9.890 -24.227  10.817  1.00  0.00    -0.244 NA
ATOM     81  CE2 TRP     9      -9.744 -25.376  10.173  1.00  0.00     0.081 A 
ATOM     82  CD2 TRP     9     -10.801 -25.494   9.284  1.00  0.00     0.015 A 
ATOM     83  CZ2 TRP     9      -8.731 -26.334  10.165  1.00  0.00     0.019 A 
ATOM     84  CE3 TRP     9     -10.854 -26.544   8.379  1.00  0.00     0.001 A 
ATOM     85  CZ3 TRP     9      -9.838 -27.494   8.360  1.00  0.00     0.000 A 
ATOM     86  CH2 TRP     9      -8.787 -27.393   9.270  1.00  0.00     0.002 A 
ENDBRANCH  77  78
ENDBRANCH  76  77
BRANCH  76  87
ATOM     87  C   TRP     9     -12.308 -21.467   7.849  1.00  0.00     0.275 C 
ATOM     88  O   TRP     9     -12.954 -21.141   8.841  1.00  0.00    -0.268 OA
ATOM     89  N   GLY    10     -11.580 -20.600   7.147  1.00  0.00    -0.226 NA
BRANCH  89  90
ATOM     90  CA  GLY    10     -11.510 -19.140   7.432  1.00  0.00     0.218 C 
BRANCH  90  91
ATOM     91  C   GLY    10     -12.159 -18.210   6.393  1.00  0.00     0.277 C 
ATOM     92  N   CYS    11     -11.616 -16.997   6.307  1.00  0.00    -0.228 NA
ATOM     93  O   GLY    10     -13.201 -18.532   5.834  1.00  0.00    -0.268 OA
BRANCH  92  94
ATOM     94  CA  CYS    11     -12.021 -15.913   5.384  1.00  0.00     0.198 C 
BRANCH  94  95
ATOM     95  C   CYS    11     -10.940 -15.785   4.293  1.00  0.00     0.275 C 
ATOM     96  O   CYS    11     -10.761 -16.719   3.519  1.00  0.00    -0.268 OA
ATOM     97  N   GLY    12     -10.134 -14.738   4.393  1.00  0.00    -0.225 NA
BRANCH  97  98
ATOM     98  CA  GLY    12      -9.040 -14.475   3.444  1.00  0.00     0.226 C 
BRANCH  98  99
ATOM     99  C   GLY    12      -7.702 -14.652   4.198  1.00  0.00     0.211 C 
ATOM    100  O1  GLY    12      -7.380 -15.828   4.506  1.00  0.00    -0.646 OA
ATOM    101  O2  GLY    12      -7.020 -13.634   4.417  1.00  0.00    -0.646 OA
ENDBRANCH  98  99
ENDBRANCH  97  98
ENDBRANCH  94  95
BRANCH  94 102
ATOM    102  CB  CYS    11     -12.028 -14.574   6.117  1.00  0.00     0.103 C 
ATOM    103  SG  CYS    11     -11.547 -14.618   7.886  1.00  0.00    -0.080 SA
ENDBRANCH  94 102
ENDBRANCH  92  94
ENDBRANCH  90  91
ENDBRANCH  89  90
ENDBRANCH  76  87
ENDBRANCH  74  76
ENDBRANCH  65  73
ENDBRANCH  63  65
ENDBRANCH  61  62
BRANCH  61 104
ATOM    104  CB  ASN     7      -8.439 -21.712   1.837  1.00  0.00     0.126 C 
BRANCH 104 105
ATOM    105  CG  ASN     7      -9.839 -21.154   1.524  1.00  0.00     0.276 C 
ATOM    106  ND2 ASN     7     -10.335 -21.466   0.349  1.00  0.00    -0.107 N 
ATOM    107  OD1 ASN     7     -10.438 -20.335   2.210  1.00  0.00    -0.269 OA
ENDBRANCH 104 105
ENDBRANCH  61 104
ENDBRANCH  59  61
ENDBRANCH   1  58
TORSDOF 42
ENDMDL
MODEL 8
REMARK VINA RESULT:      -4.4     20.032     26.804
REMARK WARNING: 32 MAX_TORS EXCEEDED!!!
REMARK  42 active torsions:
REMARK  status: ('A' for Active; 'I' for Inactive)
REMARK    1  A    between atoms: CA_2  and  CB_3 
REMARK    2  A    between atoms: CA_2  and  C_11 
REMARK    3  A    between atoms: CB_3  and  CG_4 
REMARK       I    between atoms: C_11  and  N_13 
REMARK    4  A    between atoms: N_13  and  CA_14 
REMARK    5  A    between atoms: CA_14  and  CB_15 
REMARK    6  A    between atoms: CA_14  and  C_19 
REMARK    7  A    between atoms: CB_15  and  CG_16 
REMARK       I    between atoms: C_19  and  N_21 
REMARK    8  A    between atoms: CA_22  and  C_26 
REMARK       I    between atoms: C_26  and  N_28 
REMARK    9  A    between atoms: N_28  and  CA_29 
REMARK   10  A    between atoms: CA_29  and  C_35 
REMARK   11  A    between atoms: CA_29  and  CB_30 
REMARK   12  A    between atoms: CB_30  and  CG_31 
REMARK   13  A    between atoms: CG_31  and  CD_32 
REMARK       I    between atoms: C_35  and  N_37 
REMARK   14  A    between atoms: N_37  and  CA_38 
REMARK   15  A    between atoms: CA_38  and  CB_39 
REMARK   16  A    between atoms: CA_38  and  C_47 
REMARK   17  A    between atoms: CB_39  and  CG_40 
REMARK       I    between atoms: C_47  and  N_49 
REMARK   18  A    between atoms: N_49  and  CA_50 
REMARK   19  A    between atoms: CA_50  and  CB_51 
REMARK   20  A    between atoms: CA_50  and  C_58 
REMARK   21  A    between atoms: CB_51  and  CG_52 
REMARK   22  A    between atoms: CG_52  and  CD_53 
REMARK   23  A    between atoms: CD_53  and  NE_54 
REMARK       I    between atoms: C_58  and  N_60 
REMARK   24  A    between atoms: N_60  and  CA_61 
REMARK   25  A    between atoms: CA_61  and  C_66 
REMARK   26  A    between atoms: CA_61  and  CB_62 
REMARK   27  A    between atoms: CB_62  and  CG_63 
REMARK       I    between atoms: C_66  and  N_68 
REMARK   28  A    between atoms: N_68  and  CA_69 
REMARK   29  A    between atoms: CA_69  and  CB_70 
REMARK   30  A    between atoms: CA_69  and  C_77 
REMARK   31  A    between atoms: CB_70  and  CG_71 
REMARK       I    between atoms: C_77  and  N_79 
REMARK   32  A    between atoms: N_79  and  CA_80 
REMARK   33  A    between atoms: CA_80  and  CB_81 
REMARK   34  A    between atoms: CA_80  and  C_91 
REMARK   35  A    between atoms: CB_81  and  CG_82 
REMARK       I    between atoms: C_91  and  N_93 
REMARK   36  A    between atoms: N_93  and  CA_94 
REMARK   37  A    between atoms: CA_94  and  C_95 
REMARK       I    between atoms: C_95  and  N_97 
REMARK   38  A    between atoms: N_97  and  CA_98 
REMARK   39  A    between atoms: CA_98  and  C_101 
REMARK   40  A    between atoms: CA_98  and  CB_99 
REMARK       I    between atoms: C_101  and  N_103 
REMARK   41  A    between atoms: N_103  and  CA_104 
REMARK   42  A    between atoms: CA_104  and  C_105 
ROOT
ATOM      1  CA  ARG     6      14.460  -0.177   5.786  1.00  0.00     0.186 C 
ENDROOT
BRANCH   1   2
ATOM      2  N   ARG     6      15.314  -0.719   4.704  1.00  0.00    -0.229 NA
ATOM      3  C   TYR     5      16.212   0.031   4.054  1.00  0.00     0.275 C 
ATOM      4  O   TYR     5      16.408   1.214   4.333  1.00  0.00    -0.268 OA
BRANCH   3   5
ATOM      5  CA  TYR     5      17.086  -0.674   3.003  1.00  0.00     0.191 C 
BRANCH   5   6
ATOM      6  N   TYR     5      16.751  -2.110   2.822  1.00  0.00    -0.228 NA
ATOM      7  C   GLU     4      17.676  -3.055   2.586  1.00  0.00     0.274 C 
ATOM      8  O   GLU     4      18.879  -2.830   2.640  1.00  0.00    -0.268 OA
BRANCH   7   9
ATOM      9  CA  GLU     4      17.167  -4.511   2.564  1.00  0.00     0.187 C 
BRANCH   9  10
ATOM     10  CB  GLU     4      16.082  -4.668   1.487  1.00  0.00     0.045 C 
BRANCH  10  11
ATOM     11  CG  GLU     4      15.173  -5.911   1.609  1.00  0.00     0.100 C 
BRANCH  11  12
ATOM     12  CD  GLU     4      14.044  -5.968   0.581  1.00  0.00     0.185 C 
ATOM     13  OE1 GLU     4      13.070  -6.724   0.834  1.00  0.00    -0.647 OA
ATOM     14  OE2 GLU     4      14.339  -5.671  -0.594  1.00  0.00    -0.647 OA
ENDBRANCH  11  12
ENDBRANCH  10  11
ENDBRANCH   9  10
BRANCH   9  15
ATOM     15  N   GLU     4      16.613  -4.953   3.859  1.00  0.00    -0.229 NA
ATOM     16  C   PRO     3      17.155  -5.785   4.741  1.00  0.00     0.272 C 
ATOM     17  O   PRO     3      18.362  -6.027   4.790  1.00  0.00    -0.269 OA
BRANCH  16  18
ATOM     18  CA  PRO     3      16.317  -6.042   5.995  1.00  0.00     0.165 C 
ATOM     19  N   PRO     3      16.284  -7.451   6.442  1.00  0.00    -0.312 N 
ATOM     20  CD  PRO     3      16.368  -7.507   7.924  1.00  0.00     0.105 C 
ATOM     21  C   ASP     2      16.052  -8.493   5.623  1.00  0.00     0.257 C 
ATOM     22  CG  PRO     3      16.234  -6.042   8.367  1.00  0.00     0.027 C 
ATOM     23  CB  PRO     3      16.824  -5.254   7.201  1.00  0.00     0.034 C 
ATOM     24  O   ASP     2      15.638  -8.304   4.470  1.00  0.00    -0.270 OA
BRANCH  21  25
ATOM     25  CA  ASP     2      15.954  -9.918   6.215  1.00  0.00     0.195 C 
BRANCH  25  26
ATOM     26  CB  ASP     2      15.525 -11.042   5.238  1.00  0.00     0.132 C 
BRANCH  26  27
ATOM     27  CG  ASP     2      16.284 -12.345   5.550  1.00  0.00     0.188 C 
ATOM     28  OD2 ASP     2      17.126 -12.271   6.481  1.00  0.00    -0.647 OA
ATOM     29  OD1 ASP     2      16.463 -13.138   4.592  1.00  0.00    -0.647 OA
ENDBRANCH  26  27
ENDBRANCH  25  26
BRANCH  25  30
ATOM     30  N   ASP     2      14.933 -10.009   7.273  1.00  0.00    -0.228 NA
ATOM     31  C   TYR     1      13.642  -9.812   7.136  1.00  0.00     0.289 C 
ATOM     32  O   TYR     1      13.004  -9.647   6.092  1.00  0.00    -0.268 OA
BRANCH  31  33
ATOM     33  CA  TYR     1      12.924  -9.776   8.482  1.00  0.00     0.385 C 
ATOM     34  N   TYR     1      13.910 -10.102   9.527  1.00  0.00     0.626 N 
BRANCH  33  35
ATOM     35  CB  TYR     1      12.337  -8.377   8.648  1.00  0.00     0.075 C 
BRANCH  35  36
ATOM     36  CG  TYR     1      11.835  -8.101  10.074  1.00  0.00    -0.019 A 
ATOM     37  CD2 TYR     1      11.075  -9.032  10.765  1.00  0.00    -0.002 A 
ATOM     38  CE2 TYR     1      10.750  -8.817  12.096  1.00  0.00     0.027 A 
ATOM     39  CZ  TYR     1      11.191  -7.652  12.724  1.00  0.00     0.131 A 
ATOM     40  CE1 TYR     1      11.914  -6.709  12.017  1.00  0.00     0.027 A 
ATOM     41  OH  TYR     1      11.051  -7.506  14.057  1.00  0.00    -0.190 OA
ATOM     42  CD1 TYR     1      12.239  -6.924  10.686  1.00  0.00    -0.002 A 
ENDBRANCH  35  36
ENDBRANCH  33  35
ENDBRANCH  31  33
ENDBRANCH  25  30
ENDBRANCH  21  25
ENDBRANCH  16  18
ENDBRANCH   9  15
ENDBRANCH   7   9
ENDBRANCH   5   6
BRANCH   5  43
ATOM     43  CB  TYR     5      17.019   0.058   1.652  1.00  0.00     0.060 C 
BRANCH  43  44
ATOM     44  CG  TYR     5      15.576   0.205   1.139  1.00  0.00    -0.020 A 
ATOM     45  CD2 TYR     5      14.865  -0.904   0.700  1.00  0.00    -0.002 A 
ATOM     46  CE2 TYR     5      13.558  -0.762   0.244  1.00  0.00     0.027 A 
ATOM     47  CZ  TYR     5      12.962   0.489   0.228  1.00  0.00     0.131 A 
ATOM     48  CE1 TYR     5      13.661   1.602   0.682  1.00  0.00     0.027 A 
ATOM     49  OH  TYR     5      11.748   0.657  -0.341  1.00  0.00    -0.190 OA
ATOM     50  CD1 TYR     5      14.974   1.458   1.130  1.00  0.00    -0.002 A 
ENDBRANCH  43  44
ENDBRANCH   5  43
ENDBRANCH   3   5
ENDBRANCH   1   2
BRANCH   1  51
ATOM     51  CB  ARG     6      12.985  -0.109   5.402  1.00  0.00     0.036 C 
BRANCH  51  52
ATOM     52  CG  ARG     6      12.724  -0.371   3.916  1.00  0.00     0.029 C 
BRANCH  52  53
ATOM     53  CD  ARG     6      11.957  -1.677   3.734  1.00  0.00     0.145 C 
BRANCH  53  54
ATOM     54  NE  ARG     6      10.513  -1.474   3.940  1.00  0.00    -0.083 NA
ATOM     55  CZ  ARG     6       9.782  -2.014   4.934  1.00  0.00     0.782 C 
ATOM     56  NH2 ARG     6       8.461  -1.831   4.979  1.00  0.00     0.063 N 
ATOM     57  NH1 ARG     6      10.355  -2.806   5.833  1.00  0.00     0.063 N 
ENDBRANCH  53  54
ENDBRANCH  52  53
ENDBRANCH  51  52
ENDBRANCH   1  51
BRANCH   1  58
ATOM     58  C   ARG     6      14.541  -1.010   7.071  1.00  0.00     0.274 C 
ATOM     59  N   ASN     7      13.544  -0.837   7.935  1.00  0.00    -0.228 NA
ATOM     60  O   ARG     6      15.496  -1.770   7.236  1.00  0.00    -0.268 OA
BRANCH  59  61
ATOM     61  CA  ASN     7      13.399  -1.621   9.179  1.00  0.00     0.196 C 
BRANCH  61  62
ATOM     62  C   ASN     7      12.233  -2.625   9.083  1.00  0.00     0.275 C 
ATOM     63  N   PHE     8      11.020  -2.185   9.450  1.00  0.00    -0.228 NA
ATOM     64  O   ASN     7      12.384  -3.581   8.347  1.00  0.00    -0.268 OA
BRANCH  63  65
ATOM     65  CA  PHE     8       9.766  -2.970   9.348  1.00  0.00     0.191 C 
BRANCH  65  66
ATOM     66  CB  PHE     8       9.685  -3.907  10.561  1.00  0.00     0.060 C 
BRANCH  66  67
ATOM     67  CG  PHE     8       8.949  -5.233  10.294  1.00  0.00    -0.020 A 
ATOM     68  CD1 PHE     8       8.297  -5.884  11.332  1.00  0.00    -0.004 A 
ATOM     69  CE1 PHE     8       7.718  -7.134  11.113  1.00  0.00    -0.000 A 
ATOM     70  CZ  PHE     8       7.784  -7.711   9.855  1.00  0.00    -0.000 A 
ATOM     71  CE2 PHE     8       8.424  -7.054   8.809  1.00  0.00    -0.000 A 
ATOM     72  CD2 PHE     8       9.003  -5.804   9.029  1.00  0.00    -0.004 A 
ENDBRANCH  66  67
ENDBRANCH  65  66
BRANCH  65  73
ATOM     73  C   PHE     8       8.480  -2.128   9.190  1.00  0.00     0.275 C 
ATOM     74  N   TRP     9       7.495  -2.381  10.054  1.00  0.00    -0.228 NA
ATOM     75  O   PHE     8       8.285  -1.454   8.175  1.00  0.00    -0.268 OA
BRANCH  74  76
ATOM     76  CA  TRP     9       6.256  -1.566  10.096  1.00  0.00     0.191 C 
BRANCH  76  77
ATOM     77  CB  TRP     9       5.223  -2.280  10.983  1.00  0.00     0.062 C 
BRANCH  77  78
ATOM     78  CG  TRP     9       4.063  -2.881  10.191  1.00  0.00     0.001 A 
ATOM     79  CD1 TRP     9       2.806  -2.448  10.197  1.00  0.00     0.095 A 
ATOM     80  NE1 TRP     9       2.015  -3.360   9.645  1.00  0.00    -0.244 NA
ATOM     81  CE2 TRP     9       2.741  -4.395   9.250  1.00  0.00     0.081 A 
ATOM     82  CD2 TRP     9       4.059  -4.137   9.593  1.00  0.00     0.015 A 
ATOM     83  CZ2 TRP     9       2.404  -5.633   8.704  1.00  0.00     0.019 A 
ATOM     84  CE3 TRP     9       5.041  -5.100   9.413  1.00  0.00     0.001 A 
ATOM     85  CZ3 TRP     9       4.705  -6.340   8.881  1.00  0.00     0.000 A 
ATOM     86  CH2 TRP     9       3.386  -6.594   8.510  1.00  0.00     0.002 A 
ENDBRANCH  77  78
ENDBRANCH  76  77
BRANCH  76  87
ATOM     87  C   TRP     9       6.468  -0.099  10.535  1.00  0.00     0.275 C 
ATOM     88  O   TRP     9       6.809   0.172  11.682  1.00  0.00    -0.268 OA
ATOM     89  N   GLY    10       6.357   0.823   9.580  1.00  0.00    -0.226 NA
BRANCH  89  90
ATOM     90  CA  GLY    10       6.566   2.281   9.793  1.00  0.00     0.218 C 
BRANCH  90  91
ATOM     91  C   GLY    10       7.421   3.009   8.743  1.00  0.00     0.277 C 
ATOM     92  N   CYS    11       7.987   4.140   9.162  1.00  0.00    -0.228 NA
ATOM     93  O   GLY    10       7.416   2.643   7.573  1.00  0.00    -0.268 OA
BRANCH  92  94
ATOM     94  CA  CYS    11       8.873   5.027   8.376  1.00  0.00     0.198 C 
BRANCH  94  95
ATOM     95  C   CYS    11      10.251   4.347   8.262  1.00  0.00     0.275 C 
ATOM     96  O   CYS    11      11.032   4.421   9.204  1.00  0.00    -0.268 OA
ATOM     97  N   GLY    12      10.577   3.890   7.061  1.00  0.00    -0.225 NA
BRANCH  97  98
ATOM     98  CA  GLY    12      11.861   3.229   6.776  1.00  0.00     0.226 C 
BRANCH  98  99
ATOM     99  C   GLY    12      12.490   3.920   5.544  1.00  0.00     0.211 C 
ATOM    100  O1  GLY    12      12.661   5.163   5.621  1.00  0.00    -0.646 OA
ATOM    101  O2  GLY    12      12.817   3.203   4.581  1.00  0.00    -0.646 OA
ENDBRANCH  98  99
ENDBRANCH  97  98
ENDBRANCH  94  95
BRANCH  94 102
ATOM    102  CB  CYS    11       9.118   6.330   9.133  1.00  0.00     0.103 C 
ATOM    103  SG  CYS    11       8.481   6.399  10.851  1.00  0.00    -0.080 SA
ENDBRANCH  94 102
ENDBRANCH  92  94
ENDBRANCH  90  91
ENDBRANCH  89  90
ENDBRANCH  76  87
ENDBRANCH  74  76
ENDBRANCH  65  73
ENDBRANCH  63  65
ENDBRANCH  61  62
BRANCH  61 104
ATOM    104  CB  ASN     7      13.231  -0.706  10.398  1.00  0.00     0.126 C 
BRANCH 104 105
ATOM    105  CG  ASN     7      12.909   0.763  10.065  1.00  0.00     0.276 C 
ATOM    106  ND2 ASN     7      13.921   1.599  10.110  1.00  0.00    -0.107 N 
ATOM    107  OD1 ASN     7      11.782   1.220   9.919  1.00  0.00    -0.269 OA
ENDBRANCH 104 105
ENDBRANCH  61 104
ENDBRANCH  59  61
ENDBRANCH   1  58
TORSDOF 42
ENDMDL
MODEL 9
REMARK VINA RESULT:      -4.3      3.671     10.032
REMARK WARNING: 32 MAX_TORS EXCEEDED!!!
REMARK  42 active torsions:
REMARK  status: ('A' for Active; 'I' for Inactive)
REMARK    1  A    between atoms: CA_2  and  CB_3 
REMARK    2  A    between atoms: CA_2  and  C_11 
REMARK    3  A    between atoms: CB_3  and  CG_4 
REMARK       I    between atoms: C_11  and  N_13 
REMARK    4  A    between atoms: N_13  and  CA_14 
REMARK    5  A    between atoms: CA_14  and  CB_15 
REMARK    6  A    between atoms: CA_14  and  C_19 
REMARK    7  A    between atoms: CB_15  and  CG_16 
REMARK       I    between atoms: C_19  and  N_21 
REMARK    8  A    between atoms: CA_22  and  C_26 
REMARK       I    between atoms: C_26  and  N_28 
REMARK    9  A    between atoms: N_28  and  CA_29 
REMARK   10  A    between atoms: CA_29  and  C_35 
REMARK   11  A    between atoms: CA_29  and  CB_30 
REMARK   12  A    between atoms: CB_30  and  CG_31 
REMARK   13  A    between atoms: CG_31  and  CD_32 
REMARK       I    between atoms: C_35  and  N_37 
REMARK   14  A    between atoms: N_37  and  CA_38 
REMARK   15  A    between atoms: CA_38  and  CB_39 
REMARK   16  A    between atoms: CA_38  and  C_47 
REMARK   17  A    between atoms: CB_39  and  CG_40 
REMARK       I    between atoms: C_47  and  N_49 
REMARK   18  A    between atoms: N_49  and  CA_50 
REMARK   19  A    between atoms: CA_50  and  CB_51 
REMARK   20  A    between atoms: CA_50  and  C_58 
REMARK   21  A    between atoms: CB_51  and  CG_52 
REMARK   22  A    between atoms: CG_52  and  CD_53 
REMARK   23  A    between atoms: CD_53  and  NE_54 
REMARK       I    between atoms: C_58  and  N_60 
REMARK   24  A    between atoms: N_60  and  CA_61 
REMARK   25  A    between atoms: CA_61  and  C_66 
REMARK   26  A    between atoms: CA_61  and  CB_62 
REMARK   27  A    between atoms: CB_62  and  CG_63 
REMARK       I    between atoms: C_66  and  N_68 
REMARK   28  A    between atoms: N_68  and  CA_69 
REMARK   29  A    between atoms: CA_69  and  CB_70 
REMARK   30  A    between atoms: CA_69  and  C_77 
REMARK   31  A    between atoms: CB_70  and  CG_71 
REMARK       I    between atoms: C_77  and  N_79 
REMARK   32  A    between atoms: N_79  and  CA_80 
REMARK   33  A    between atoms: CA_80  and  CB_81 
REMARK   34  A    between atoms: CA_80  and  C_91 
REMARK   35  A    between atoms: CB_81  and  CG_82 
REMARK       I    between atoms: C_91  and  N_93 
REMARK   36  A    between atoms: N_93  and  CA_94 
REMARK   37  A    between atoms: CA_94  and  C_95 
REMARK       I    between atoms: C_95  and  N_97 
REMARK   38  A    between atoms: N_97  and  CA_98 
REMARK   39  A    between atoms: CA_98  and  C_101 
REMARK   40  A    between atoms: CA_98  and  CB_99 
REMARK       I    between atoms: C_101  and  N_103 
REMARK   41  A    between atoms: N_103  and  CA_104 
REMARK   42  A    between atoms: CA_104  and  C_105 
ROOT
ATOM      1  CA  ARG     6      -3.780 -16.093   7.846  1.00  0.00     0.186 C 
ENDROOT
BRANCH   1   2
ATOM      2  N   ARG     6      -5.022 -16.080   7.038  1.00  0.00    -0.229 NA
ATOM      3  C   TYR     5      -5.616 -14.943   6.653  1.00  0.00     0.275 C 
ATOM      4  O   TYR     5      -5.152 -13.835   6.920  1.00  0.00    -0.268 OA
BRANCH   3   5
ATOM      5  CA  TYR     5      -6.858 -15.071   5.756  1.00  0.00     0.191 C 
BRANCH   5   6
ATOM      6  N   TYR     5      -8.097 -15.412   6.503  1.00  0.00    -0.228 NA
ATOM      7  C   GLU     4      -8.772 -16.559   6.320  1.00  0.00     0.274 C 
ATOM      8  O   GLU     4      -8.344 -17.474   5.628  1.00  0.00    -0.268 OA
BRANCH   7   9
ATOM      9  CA  GLU     4      -9.953 -16.809   7.280  1.00  0.00     0.187 C 
BRANCH   9  10
ATOM     10  CB  GLU     4     -10.166 -15.578   8.176  1.00  0.00     0.045 C 
BRANCH  10  11
ATOM     11  CG  GLU     4     -10.626 -15.859   9.624  1.00  0.00     0.100 C 
BRANCH  11  12
ATOM     12  CD  GLU     4      -9.539 -15.661  10.679  1.00  0.00     0.185 C 
ATOM     13  OE1 GLU     4      -8.427 -15.220  10.288  1.00  0.00    -0.647 OA
ATOM     14  OE2 GLU     4      -9.628 -16.355  11.713  1.00  0.00    -0.647 OA
ENDBRANCH  11  12
ENDBRANCH  10  11
ENDBRANCH   9  10
BRANCH   9  15
ATOM     15  N   GLU     4      -9.764 -17.992   8.141  1.00  0.00    -0.229 NA
ATOM     16  C   PRO     3      -8.623 -18.532   8.552  1.00  0.00     0.272 C 
ATOM     17  O   PRO     3      -7.556 -17.917   8.586  1.00  0.00    -0.269 OA
BRANCH  16  18
ATOM     18  CA  PRO     3      -8.769 -19.768   9.443  1.00  0.00     0.165 C 
ATOM     19  N   PRO     3      -7.981 -20.942   9.012  1.00  0.00    -0.312 N 
ATOM     20  CD  PRO     3      -7.395 -21.614  10.200  1.00  0.00     0.105 C 
ATOM     21  C   ASP     2      -7.948 -21.401   7.747  1.00  0.00     0.257 C 
ATOM     22  CG  PRO     3      -8.052 -20.909  11.396  1.00  0.00     0.027 C 
ATOM     23  CB  PRO     3      -8.330 -19.500  10.881  1.00  0.00     0.034 C 
ATOM     24  O   ASP     2      -8.757 -20.981   6.907  1.00  0.00    -0.270 OA
BRANCH  21  25
ATOM     25  CA  ASP     2      -7.157 -22.690   7.427  1.00  0.00     0.195 C 
BRANCH  25  26
ATOM     26  CB  ASP     2      -5.753 -22.498   6.798  1.00  0.00     0.132 C 
BRANCH  26  27
ATOM     27  CG  ASP     2      -4.775 -23.562   7.332  1.00  0.00     0.188 C 
ATOM     28  OD2 ASP     2      -5.123 -24.131   8.398  1.00  0.00    -0.647 OA
ATOM     29  OD1 ASP     2      -3.558 -23.392   7.070  1.00  0.00    -0.647 OA
ENDBRANCH  26  27
ENDBRANCH  25  26
BRANCH  25  30
ATOM     30  N   ASP     2      -7.842 -23.526   6.426  1.00  0.00    -0.228 NA
ATOM     31  C   TYR     1      -8.689 -24.500   6.665  1.00  0.00     0.289 C 
ATOM     32  O   TYR     1      -9.187 -24.827   7.747  1.00  0.00    -0.268 OA
BRANCH  31  33
ATOM     33  CA  TYR     1      -9.029 -25.284   5.401  1.00  0.00     0.385 C 
ATOM     34  N   TYR     1      -8.288 -24.678   4.282  1.00  0.00     0.626 N 
BRANCH  33  35
ATOM     35  CB  TYR     1      -8.633 -26.737   5.646  1.00  0.00     0.075 C 
BRANCH  35  36
ATOM     36  CG  TYR     1      -7.274 -27.102   5.029  1.00  0.00    -0.019 A 
ATOM     37  CD2 TYR     1      -6.089 -26.590   5.536  1.00  0.00    -0.002 A 
ATOM     38  CE2 TYR     1      -4.871 -27.039   5.050  1.00  0.00     0.027 A 
ATOM     39  CZ  TYR     1      -4.854 -28.004   4.044  1.00  0.00     0.131 A 
ATOM     40  CE1 TYR     1      -6.039 -28.480   3.514  1.00  0.00     0.027 A 
ATOM     41  OH  TYR     1      -3.694 -28.591   3.687  1.00  0.00    -0.190 OA
ATOM     42  CD1 TYR     1      -7.258 -28.031   4.000  1.00  0.00    -0.002 A 
ENDBRANCH  35  36
ENDBRANCH  33  35
ENDBRANCH  31  33
ENDBRANCH  25  30
ENDBRANCH  21  25
ENDBRANCH  16  18
ENDBRANCH   9  15
ENDBRANCH   7   9
ENDBRANCH   5   6
BRANCH   5  43
ATOM     43  CB  TYR     5      -7.075 -13.790   4.932  1.00  0.00     0.060 C 
BRANCH  43  44
ATOM     44  CG  TYR     5      -8.359 -13.850   4.088  1.00  0.00    -0.020 A 
ATOM     45  CD2 TYR     5      -8.480 -14.761   3.047  1.00  0.00    -0.002 A 
ATOM     46  CE2 TYR     5      -9.649 -14.812   2.294  1.00  0.00     0.027 A 
ATOM     47  CZ  TYR     5     -10.697 -13.952   2.581  1.00  0.00     0.131 A 
ATOM     48  CE1 TYR     5     -10.591 -13.048   3.633  1.00  0.00     0.027 A 
ATOM     49  OH  TYR     5     -11.776 -13.899   1.770  1.00  0.00    -0.190 OA
ATOM     50  CD1 TYR     5      -9.414 -12.993   4.381  1.00  0.00    -0.002 A 
ENDBRANCH  43  44
ENDBRANCH   5  43
ENDBRANCH   3   5
ENDBRANCH   1   2
BRANCH   1  51
ATOM     51  CB  ARG     6      -3.928 -16.868   9.151  1.00  0.00     0.036 C 
BRANCH  51  52
ATOM     52  CG  ARG     6      -4.912 -16.231  10.136  1.00  0.00     0.029 C 
BRANCH  52  53
ATOM     53  CD  ARG     6      -4.495 -14.797  10.451  1.00  0.00     0.145 C 
BRANCH  53  54
ATOM     54  NE  ARG     6      -5.352 -14.216  11.497  1.00  0.00    -0.083 NA
ATOM     55  CZ  ARG     6      -5.031 -14.112  12.801  1.00  0.00     0.782 C 
ATOM     56  NH2 ARG     6      -5.918 -13.644  13.682  1.00  0.00     0.063 N 
ATOM     57  NH1 ARG     6      -3.859 -14.555  13.241  1.00  0.00     0.063 N 
ENDBRANCH  53  54
ENDBRANCH  52  53
ENDBRANCH  51  52
ENDBRANCH   1  51
BRANCH   1  58
ATOM     58  C   ARG     6      -2.599 -16.721   7.095  1.00  0.00     0.274 C 
ATOM     59  N   ASN     7      -2.474 -18.040   7.215  1.00  0.00    -0.228 NA
ATOM     60  O   ARG     6      -1.847 -15.995   6.443  1.00  0.00    -0.268 OA
BRANCH  59  61
ATOM     61  CA  ASN     7      -1.460 -18.831   6.488  1.00  0.00     0.196 C 
BRANCH  61  62
ATOM     62  C   ASN     7      -2.055 -20.137   5.927  1.00  0.00     0.275 C 
ATOM     63  N   PHE     8      -2.665 -20.064   4.735  1.00  0.00    -0.228 NA
ATOM     64  O   ASN     7      -1.619 -21.181   6.373  1.00  0.00    -0.268 OA
BRANCH  63  65
ATOM     65  CA  PHE     8      -3.222 -21.222   3.994  1.00  0.00     0.191 C 
BRANCH  65  66
ATOM     66  CB  PHE     8      -3.975 -20.690   2.767  1.00  0.00     0.060 C 
BRANCH  66  67
ATOM     67  CG  PHE     8      -5.504 -20.866   2.833  1.00  0.00    -0.020 A 
ATOM     68  CD1 PHE     8      -6.232 -20.232   3.830  1.00  0.00    -0.004 A 
ATOM     69  CE1 PHE     8      -7.600 -20.473   3.951  1.00  0.00    -0.000 A 
ATOM     70  CZ  PHE     8      -8.228 -21.333   3.065  1.00  0.00    -0.000 A 
ATOM     71  CE2 PHE     8      -7.503 -21.960   2.057  1.00  0.00    -0.000 A 
ATOM     72  CD2 PHE     8      -6.135 -21.719   1.935  1.00  0.00    -0.004 A 
ENDBRANCH  66  67
ENDBRANCH  65  66
BRANCH  65  73
ATOM     73  C   PHE     8      -2.190 -22.305   3.605  1.00  0.00     0.275 C 
ATOM     74  N   TRP     9      -2.507 -23.564   3.914  1.00  0.00    -0.228 NA
ATOM     75  O   PHE     8      -1.045 -21.997   3.267  1.00  0.00    -0.268 OA
BRANCH  74  76
ATOM     76  CA  TRP     9      -1.669 -24.713   3.491  1.00  0.00     0.191 C 
BRANCH  76  77
ATOM     77  CB  TRP     9      -1.662 -24.783   1.956  1.00  0.00     0.062 C 
BRANCH  77  78
ATOM     78  CG  TRP     9      -2.480 -25.948   1.402  1.00  0.00     0.001 A 
ATOM     79  CD1 TRP     9      -2.007 -26.967   0.692  1.00  0.00     0.095 A 
ATOM     80  NE1 TRP     9      -3.011 -27.627   0.129  1.00  0.00    -0.244 NA
ATOM     81  CE2 TRP     9      -4.160 -27.065   0.476  1.00  0.00     0.081 A 
ATOM     82  CD2 TRP     9      -3.866 -25.976   1.281  1.00  0.00     0.015 A 
ATOM     83  CZ2 TRP     9      -5.481 -27.303   0.100  1.00  0.00     0.019 A 
ATOM     84  CE3 TRP     9      -4.867 -25.114   1.703  1.00  0.00     0.001 A 
ATOM     85  CZ3 TRP     9      -6.184 -25.342   1.318  1.00  0.00     0.000 A 
ATOM     86  CH2 TRP     9      -6.487 -26.451   0.531  1.00  0.00     0.002 A 
ENDBRANCH  77  78
ENDBRANCH  76  77
BRANCH  76  87
ATOM     87  C   TRP     9      -0.235 -24.708   4.068  1.00  0.00     0.275 C 
ATOM     88  O   TRP     9       0.743 -24.724   3.327  1.00  0.00    -0.268 OA
ATOM     89  N   GLY    10      -0.133 -24.585   5.391  1.00  0.00    -0.226 NA
BRANCH  89  90
ATOM     90  CA  GLY    10       1.157 -24.517   6.130  1.00  0.00     0.218 C 
BRANCH  90  91
ATOM     91  C   GLY    10       1.680 -23.109   6.462  1.00  0.00     0.277 C 
ATOM     92  N   CYS    11       2.284 -22.997   7.644  1.00  0.00    -0.228 NA
ATOM     93  O   GLY    10       1.391 -22.153   5.751  1.00  0.00    -0.268 OA
BRANCH  92  94
ATOM     94  CA  CYS    11       2.898 -21.774   8.208  1.00  0.00     0.198 C 
BRANCH  94  95
ATOM     95  C   CYS    11       4.407 -21.808   7.893  1.00  0.00     0.275 C 
ATOM     96  O   CYS    11       5.099 -22.692   8.387  1.00  0.00    -0.268 OA
ATOM     97  N   GLY    12       4.893 -20.750   7.260  1.00  0.00    -0.225 NA
BRANCH  97  98
ATOM     98  CA  GLY    12       6.312 -20.615   6.898  1.00  0.00     0.226 C 
BRANCH  98  99
ATOM     99  C   GLY    12       6.978 -19.667   7.922  1.00  0.00     0.211 C 
ATOM    100  O1  GLY    12       7.292 -18.522   7.509  1.00  0.00    -0.646 OA
ATOM    101  O2  GLY    12       7.125 -20.082   9.087  1.00  0.00    -0.646 OA
ENDBRANCH  98  99
ENDBRANCH  97  98
ENDBRANCH  94  95
BRANCH  94 102
ATOM    102  CB  CYS    11       2.795 -21.788   9.731  1.00  0.00     0.103 C 
ATOM    103  SG  CYS    11       3.211 -20.219  10.584  1.00  0.00    -0.080 SA
ENDBRANCH  94 102
ENDBRANCH  92  94
ENDBRANCH  90  91
ENDBRANCH  89  90
ENDBRANCH  76  87
ENDBRANCH  74  76
ENDBRANCH  65  73
ENDBRANCH  63  65
ENDBRANCH  61  62
BRANCH  61 104
ATOM    104  CB  ASN     7      -0.242 -19.124   7.374  1.00  0.00     0.126 C 
BRANCH 104 105
ATOM    105  CG  ASN     7       1.075 -18.486   6.895  1.00  0.00     0.276 C 
ATOM    106  ND2 ASN     7       0.968 -17.587   5.943  1.00  0.00    -0.107 N 
ATOM    107  OD1 ASN     7       2.195 -18.861   7.218  1.00  0.00    -0.269 OA
ENDBRANCH 104 105
ENDBRANCH  61 104
ENDBRANCH  59  61
ENDBRANCH   1  58
TORSDOF 42
ENDMDL
