MODEL 1
REMARK VINA RESULT:      -6.0      0.000      0.000
REMARK WARNING: 32 MAX_TORS EXCEEDED!!!
REMARK  42 active torsions:
REMARK  status: ('A' for Active; 'I' for Inactive)
REMARK    1  A    between atoms: CA_2  and  CB_3 
REMARK    2  A    between atoms: CA_2  and  C_11 
REMARK    3  A    between atoms: CB_3  and  CG_4 
REMARK       I    between atoms: C_11  and  N_13 
REMARK    4  A    between atoms: N_13  and  CA_14 
REMARK    5  A    between atoms: CA_14  and  CB_15 
REMARK    6  A    between atoms: CA_14  and  C_19 
REMARK    7  A    between atoms: CB_15  and  CG_16 
REMARK       I    between atoms: C_19  and  N_21 
REMARK    8  A    between atoms: CA_22  and  C_26 
REMARK       I    between atoms: C_26  and  N_28 
REMARK    9  A    between atoms: N_28  and  CA_29 
REMARK   10  A    between atoms: CA_29  and  C_35 
REMARK   11  A    between atoms: CA_29  and  CB_30 
REMARK   12  A    between atoms: CB_30  and  CG_31 
REMARK   13  A    between atoms: CG_31  and  CD_32 
REMARK       I    between atoms: C_35  and  N_37 
REMARK   14  A    between atoms: N_37  and  CA_38 
REMARK   15  A    between atoms: CA_38  and  CB_39 
REMARK   16  A    between atoms: CA_38  and  C_47 
REMARK   17  A    between atoms: CB_39  and  CG_40 
REMARK       I    between atoms: C_47  and  N_49 
REMARK   18  A    between atoms: N_49  and  CA_50 
REMARK   19  A    between atoms: CA_50  and  CB_51 
REMARK   20  A    between atoms: CA_50  and  C_58 
REMARK   21  A    between atoms: CB_51  and  CG_52 
REMARK   22  A    between atoms: CG_52  and  CD_53 
REMARK   23  A    between atoms: CD_53  and  NE_54 
REMARK       I    between atoms: C_58  and  N_60 
REMARK   24  A    between atoms: N_60  and  CA_61 
REMARK   25  A    between atoms: CA_61  and  C_66 
REMARK   26  A    between atoms: CA_61  and  CB_62 
REMARK   27  A    between atoms: CB_62  and  CG_63 
REMARK       I    between atoms: C_66  and  N_68 
REMARK   28  A    between atoms: N_68  and  CA_69 
REMARK   29  A    between atoms: CA_69  and  CB_70 
REMARK   30  A    between atoms: CA_69  and  C_77 
REMARK   31  A    between atoms: CB_70  and  CG_71 
REMARK       I    between atoms: C_77  and  N_79 
REMARK   32  A    between atoms: N_79  and  CA_80 
REMARK   33  A    between atoms: CA_80  and  CB_81 
REMARK   34  A    between atoms: CA_80  and  C_91 
REMARK   35  A    between atoms: CB_81  and  CG_82 
REMARK       I    between atoms: C_91  and  N_93 
REMARK   36  A    between atoms: N_93  and  CA_94 
REMARK   37  A    between atoms: CA_94  and  C_95 
REMARK       I    between atoms: C_95  and  N_97 
REMARK   38  A    between atoms: N_97  and  CA_98 
REMARK   39  A    between atoms: CA_98  and  C_101 
REMARK   40  A    between atoms: CA_98  and  CB_99 
REMARK       I    between atoms: C_101  and  N_103 
REMARK   41  A    between atoms: N_103  and  CA_104 
REMARK   42  A    between atoms: CA_104  and  C_105 
ROOT
ATOM      1  CA  ARG     6      -5.272   0.781   9.561  1.00  0.00     0.186 C 
ENDROOT
BRANCH   1   2
ATOM      2  N   ARG     6      -5.744   0.949   8.167  1.00  0.00    -0.229 NA
ATOM      3  C   TYR     5      -6.812   1.696   7.855  1.00  0.00     0.275 C 
ATOM      4  O   TYR     5      -7.453   2.315   8.705  1.00  0.00    -0.268 OA
BRANCH   3   5
ATOM      5  CA  TYR     5      -7.149   1.847   6.363  1.00  0.00     0.191 C 
BRANCH   5   6
ATOM      6  N   TYR     5      -7.303   3.260   5.930  1.00  0.00    -0.228 NA
ATOM      7  C   GLU     4      -6.322   4.171   6.036  1.00  0.00     0.274 C 
ATOM      8  O   GLU     4      -5.180   3.876   6.368  1.00  0.00    -0.268 OA
BRANCH   7   9
ATOM      9  CA  GLU     4      -6.608   5.550   5.408  1.00  0.00     0.187 C 
BRANCH   9  10
ATOM     10  CB  GLU     4      -5.611   5.822   4.270  1.00  0.00     0.045 C 
BRANCH  10  11
ATOM     11  CG  GLU     4      -4.484   6.832   4.576  1.00  0.00     0.100 C 
BRANCH  11  12
ATOM     12  CD  GLU     4      -3.999   7.621   3.360  1.00  0.00     0.185 C 
ATOM     13  OE1 GLU     4      -3.758   6.972   2.308  1.00  0.00    -0.647 OA
ATOM     14  OE2 GLU     4      -3.436   8.711   3.586  1.00  0.00    -0.647 OA
ENDBRANCH  11  12
ENDBRANCH  10  11
ENDBRANCH   9  10
BRANCH   9  15
ATOM     15  N   GLU     4      -6.529   6.659   6.378  1.00  0.00    -0.229 NA
ATOM     16  C   PRO     3      -7.525   7.372   6.892  1.00  0.00     0.272 C 
ATOM     17  O   PRO     3      -8.692   6.978   6.924  1.00  0.00    -0.269 OA
BRANCH  16  18
ATOM     18  CA  PRO     3      -7.105   8.463   7.879  1.00  0.00     0.165 C 
ATOM     19  N   PRO     3      -7.732   9.783   7.650  1.00  0.00    -0.312 N 
ATOM     20  CD  PRO     3      -8.096  10.395   8.953  1.00  0.00     0.105 C 
ATOM     21  C   ASP     2      -7.804  10.382   6.447  1.00  0.00     0.257 C 
ATOM     22  CG  PRO     3      -7.456   9.470  10.000  1.00  0.00     0.027 C 
ATOM     23  CB  PRO     3      -7.453   8.103   9.322  1.00  0.00     0.034 C 
ATOM     24  O   ASP     2      -7.149   9.943   5.489  1.00  0.00    -0.270 OA
BRANCH  21  25
ATOM     25  CA  ASP     2      -8.405  11.801   6.340  1.00  0.00     0.195 C 
BRANCH  25  26
ATOM     26  CB  ASP     2      -9.934  11.886   6.098  1.00  0.00     0.132 C 
BRANCH  26  27
ATOM     27  CG  ASP     2     -10.537  13.070   6.876  1.00  0.00     0.188 C 
ATOM     28  OD2 ASP     2     -10.782  14.098   6.194  1.00  0.00    -0.647 OA
ATOM     29  OD1 ASP     2     -10.217  13.171   8.086  1.00  0.00    -0.647 OA
ENDBRANCH  26  27
ENDBRANCH  25  26
BRANCH  25  30
ATOM     30  N   ASP     2      -7.859  12.548   5.193  1.00  0.00    -0.228 NA
ATOM     31  C   TYR     1      -7.337  13.752   5.218  1.00  0.00     0.289 C 
ATOM     32  O   TYR     1      -7.072  14.446   6.204  1.00  0.00    -0.268 OA
BRANCH  31  33
ATOM     33  CA  TYR     1      -7.079  14.291   3.814  1.00  0.00     0.385 C 
ATOM     34  N   TYR     1      -8.363  14.310   3.095  1.00  0.00     0.626 N 
BRANCH  33  35
ATOM     35  CB  TYR     1      -6.473  15.684   3.966  1.00  0.00     0.075 C 
BRANCH  35  36
ATOM     36  CG  TYR     1      -5.036  15.776   3.429  1.00  0.00    -0.019 A 
ATOM     37  CD2 TYR     1      -3.955  15.932   4.282  1.00  0.00    -0.002 A 
ATOM     38  CE2 TYR     1      -2.661  15.877   3.786  1.00  0.00     0.027 A 
ATOM     39  CZ  TYR     1      -2.465  15.669   2.421  1.00  0.00     0.131 A 
ATOM     40  CE1 TYR     1      -3.549  15.556   1.569  1.00  0.00     0.027 A 
ATOM     41  OH  TYR     1      -1.228  15.425   1.943  1.00  0.00    -0.190 OA
ATOM     42  CD1 TYR     1      -4.842  15.611   2.066  1.00  0.00    -0.002 A 
ENDBRANCH  35  36
ENDBRANCH  33  35
ENDBRANCH  31  33
ENDBRANCH  25  30
ENDBRANCH  21  25
ENDBRANCH  16  18
ENDBRANCH   9  15
ENDBRANCH   7   9
ENDBRANCH   5   6
BRANCH   5  43
ATOM     43  CB  TYR     5      -6.102   1.138   5.488  1.00  0.00     0.060 C 
BRANCH  43  44
ATOM     44  CG  TYR     5      -6.722   0.037   4.612  1.00  0.00    -0.020 A 
ATOM     45  CD2 TYR     5      -8.099  -0.133   4.558  1.00  0.00    -0.002 A 
ATOM     46  CE2 TYR     5      -8.652  -1.127   3.756  1.00  0.00     0.027 A 
ATOM     47  CZ  TYR     5      -7.826  -1.952   3.008  1.00  0.00     0.131 A 
ATOM     48  CE1 TYR     5      -6.447  -1.777   3.042  1.00  0.00     0.027 A 
ATOM     49  OH  TYR     5      -8.343  -3.005   2.338  1.00  0.00    -0.190 OA
ATOM     50  CD1 TYR     5      -5.896  -0.786   3.853  1.00  0.00    -0.002 A 
ENDBRANCH  43  44
ENDBRANCH   5  43
ENDBRANCH   3   5
ENDBRANCH   1   2
BRANCH   1  51
ATOM     51  CB  ARG     6      -5.125  -0.683   9.966  1.00  0.00     0.036 C 
BRANCH  51  52
ATOM     52  CG  ARG     6      -6.210  -1.166  10.931  1.00  0.00     0.029 C 
BRANCH  52  53
ATOM     53  CD  ARG     6      -7.360  -1.807  10.159  1.00  0.00     0.145 C 
BRANCH  53  54
ATOM     54  NE  ARG     6      -8.521  -0.904  10.094  1.00  0.00    -0.083 NA
ATOM     55  CZ  ARG     6      -9.272  -0.675   9.001  1.00  0.00     0.782 C 
ATOM     56  NH2 ARG     6     -10.253   0.230   9.029  1.00  0.00     0.063 N 
ATOM     57  NH1 ARG     6      -8.992  -1.285   7.854  1.00  0.00     0.063 N 
ENDBRANCH  53  54
ENDBRANCH  52  53
ENDBRANCH  51  52
ENDBRANCH   1  51
BRANCH   1  58
ATOM     58  C   ARG     6      -3.910   1.443   9.804  1.00  0.00     0.274 C 
ATOM     59  N   ASN     7      -2.943   1.099   8.957  1.00  0.00    -0.228 NA
ATOM     60  O   ARG     6      -3.782   2.230  10.742  1.00  0.00    -0.268 OA
BRANCH  59  61
ATOM     61  CA  ASN     7      -1.595   1.704   8.972  1.00  0.00     0.196 C 
BRANCH  61  62
ATOM     62  C   ASN     7      -1.584   3.081   8.278  1.00  0.00     0.275 C 
ATOM     63  N   PHE     8      -1.043   4.100   8.962  1.00  0.00    -0.228 NA
ATOM     64  O   ASN     7      -1.692   3.092   7.068  1.00  0.00    -0.268 OA
BRANCH  63  65
ATOM     65  CA  PHE     8      -0.863   5.475   8.434  1.00  0.00     0.191 C 
BRANCH  65  66
ATOM     66  CB  PHE     8      -1.266   6.468   9.532  1.00  0.00     0.060 C 
BRANCH  66  67
ATOM     67  CG  PHE     8      -2.146   7.635   9.043  1.00  0.00    -0.020 A 
ATOM     68  CD1 PHE     8      -1.952   8.163   7.774  1.00  0.00    -0.004 A 
ATOM     69  CE1 PHE     8      -2.679   9.284   7.371  1.00  0.00    -0.000 A 
ATOM     70  CZ  PHE     8      -3.600   9.853   8.235  1.00  0.00    -0.000 A 
ATOM     71  CE2 PHE     8      -3.805   9.317   9.502  1.00  0.00    -0.000 A 
ATOM     72  CD2 PHE     8      -3.079   8.196   9.905  1.00  0.00    -0.004 A 
ENDBRANCH  66  67
ENDBRANCH  65  66
BRANCH  65  73
ATOM     73  C   PHE     8       0.546   5.780   7.876  1.00  0.00     0.275 C 
ATOM     74  N   TRP     9       1.289   6.637   8.578  1.00  0.00    -0.228 NA
ATOM     75  O   PHE     8       0.858   5.452   6.728  1.00  0.00    -0.268 OA
BRANCH  74  76
ATOM     76  CA  TRP     9       2.701   6.926   8.227  1.00  0.00     0.191 C 
BRANCH  76  77
ATOM     77  CB  TRP     9       3.045   8.352   8.686  1.00  0.00     0.062 C 
BRANCH  77  78
ATOM     78  CG  TRP     9       1.984   9.382   8.299  1.00  0.00     0.001 A 
ATOM     79  CD1 TRP     9       2.000  10.147   7.211  1.00  0.00     0.095 A 
ATOM     80  NE1 TRP     9       1.103  11.117   7.333  1.00  0.00    -0.244 NA
ATOM     81  CE2 TRP     9       0.472  10.994   8.491  1.00  0.00     0.081 A 
ATOM     82  CD2 TRP     9       1.014   9.902   9.150  1.00  0.00     0.015 A 
ATOM     83  CZ2 TRP     9      -0.479  11.782   9.140  1.00  0.00     0.019 A 
ATOM     84  CE3 TRP     9       0.635   9.594  10.448  1.00  0.00     0.001 A 
ATOM     85  CZ3 TRP     9      -0.302  10.387  11.101  1.00  0.00     0.000 A 
ATOM     86  CH2 TRP     9      -0.870  11.470  10.434  1.00  0.00     0.002 A 
ENDBRANCH  77  78
ENDBRANCH  76  77
BRANCH  76  87
ATOM     87  C   TRP     9       3.719   5.893   8.763  1.00  0.00     0.275 C 
ATOM     88  O   TRP     9       3.694   5.534   9.936  1.00  0.00    -0.268 OA
ATOM     89  N   GLY    10       4.541   5.356   7.862  1.00  0.00    -0.226 NA
BRANCH  89  90
ATOM     90  CA  GLY    10       5.559   4.315   8.173  1.00  0.00     0.218 C 
BRANCH  90  91
ATOM     91  C   GLY    10       5.894   3.330   7.042  1.00  0.00     0.277 C 
ATOM     92  N   CYS    11       7.186   3.253   6.726  1.00  0.00    -0.228 NA
ATOM     93  O   GLY    10       5.001   2.805   6.386  1.00  0.00    -0.268 OA
BRANCH  92  94
ATOM     94  CA  CYS    11       7.793   2.377   5.698  1.00  0.00     0.198 C 
BRANCH  94  95
ATOM     95  C   CYS    11       7.952   0.969   6.304  1.00  0.00     0.275 C 
ATOM     96  O   CYS    11       7.602  -0.006   5.648  1.00  0.00    -0.268 OA
ATOM     97  N   GLY    12       8.278   0.921   7.588  1.00  0.00    -0.225 NA
BRANCH  97  98
ATOM     98  CA  GLY    12       8.454  -0.341   8.324  1.00  0.00     0.226 C 
BRANCH  98  99
ATOM     99  C   GLY    12       7.331  -0.437   9.382  1.00  0.00     0.211 C 
ATOM    100  O1  GLY    12       6.970  -1.593   9.717  1.00  0.00    -0.646 OA
ATOM    101  O2  GLY    12       6.886   0.626   9.854  1.00  0.00    -0.646 OA
ENDBRANCH  98  99
ENDBRANCH  97  98
ENDBRANCH  94  95
BRANCH  94 102
ATOM    102  CB  CYS    11       9.208   2.848   5.374  1.00  0.00     0.103 C 
ATOM    103  SG  CYS    11      10.081   1.933   4.046  1.00  0.00    -0.080 SA
ENDBRANCH  94 102
ENDBRANCH  92  94
ENDBRANCH  90  91
ENDBRANCH  89  90
ENDBRANCH  76  87
ENDBRANCH  74  76
ENDBRANCH  65  73
ENDBRANCH  63  65
ENDBRANCH  61  62
BRANCH  61 104
ATOM    104  CB  ASN     7      -0.558   0.767   8.340  1.00  0.00     0.126 C 
BRANCH 104 105
ATOM    105  CG  ASN     7       0.560   0.303   9.292  1.00  0.00     0.276 C 
ATOM    106  ND2 ASN     7       1.724   0.056   8.738  1.00  0.00    -0.107 N 
ATOM    107  OD1 ASN     7       0.401   0.005  10.469  1.00  0.00    -0.269 OA
ENDBRANCH 104 105
ENDBRANCH  61 104
ENDBRANCH  59  61
ENDBRANCH   1  58
TORSDOF 42
ENDMDL
MODEL 2
REMARK VINA RESULT:      -5.8      4.282     11.380
REMARK WARNING: 32 MAX_TORS EXCEEDED!!!
REMARK  42 active torsions:
REMARK  status: ('A' for Active; 'I' for Inactive)
REMARK    1  A    between atoms: CA_2  and  CB_3 
REMARK    2  A    between atoms: CA_2  and  C_11 
REMARK    3  A    between atoms: CB_3  and  CG_4 
REMARK       I    between atoms: C_11  and  N_13 
REMARK    4  A    between atoms: N_13  and  CA_14 
REMARK    5  A    between atoms: CA_14  and  CB_15 
REMARK    6  A    between atoms: CA_14  and  C_19 
REMARK    7  A    between atoms: CB_15  and  CG_16 
REMARK       I    between atoms: C_19  and  N_21 
REMARK    8  A    between atoms: CA_22  and  C_26 
REMARK       I    between atoms: C_26  and  N_28 
REMARK    9  A    between atoms: N_28  and  CA_29 
REMARK   10  A    between atoms: CA_29  and  C_35 
REMARK   11  A    between atoms: CA_29  and  CB_30 
REMARK   12  A    between atoms: CB_30  and  CG_31 
REMARK   13  A    between atoms: CG_31  and  CD_32 
REMARK       I    between atoms: C_35  and  N_37 
REMARK   14  A    between atoms: N_37  and  CA_38 
REMARK   15  A    between atoms: CA_38  and  CB_39 
REMARK   16  A    between atoms: CA_38  and  C_47 
REMARK   17  A    between atoms: CB_39  and  CG_40 
REMARK       I    between atoms: C_47  and  N_49 
REMARK   18  A    between atoms: N_49  and  CA_50 
REMARK   19  A    between atoms: CA_50  and  CB_51 
REMARK   20  A    between atoms: CA_50  and  C_58 
REMARK   21  A    between atoms: CB_51  and  CG_52 
REMARK   22  A    between atoms: CG_52  and  CD_53 
REMARK   23  A    between atoms: CD_53  and  NE_54 
REMARK       I    between atoms: C_58  and  N_60 
REMARK   24  A    between atoms: N_60  and  CA_61 
REMARK   25  A    between atoms: CA_61  and  C_66 
REMARK   26  A    between atoms: CA_61  and  CB_62 
REMARK   27  A    between atoms: CB_62  and  CG_63 
REMARK       I    between atoms: C_66  and  N_68 
REMARK   28  A    between atoms: N_68  and  CA_69 
REMARK   29  A    between atoms: CA_69  and  CB_70 
REMARK   30  A    between atoms: CA_69  and  C_77 
REMARK   31  A    between atoms: CB_70  and  CG_71 
REMARK       I    between atoms: C_77  and  N_79 
REMARK   32  A    between atoms: N_79  and  CA_80 
REMARK   33  A    between atoms: CA_80  and  CB_81 
REMARK   34  A    between atoms: CA_80  and  C_91 
REMARK   35  A    between atoms: CB_81  and  CG_82 
REMARK       I    between atoms: C_91  and  N_93 
REMARK   36  A    between atoms: N_93  and  CA_94 
REMARK   37  A    between atoms: CA_94  and  C_95 
REMARK       I    between atoms: C_95  and  N_97 
REMARK   38  A    between atoms: N_97  and  CA_98 
REMARK   39  A    between atoms: CA_98  and  C_101 
REMARK   40  A    between atoms: CA_98  and  CB_99 
REMARK       I    between atoms: C_101  and  N_103 
REMARK   41  A    between atoms: N_103  and  CA_104 
REMARK   42  A    between atoms: CA_104  and  C_105 
ROOT
ATOM      1  CA  ARG     6       0.795   2.642  10.304  1.00  0.00     0.186 C 
ENDROOT
BRANCH   1   2
ATOM      2  N   ARG     6       1.361   3.620   9.346  1.00  0.00    -0.229 NA
ATOM      3  C   TYR     5       2.645   4.000   9.382  1.00  0.00     0.275 C 
ATOM      4  O   TYR     5       3.445   3.538  10.195  1.00  0.00    -0.268 OA
BRANCH   3   5
ATOM      5  CA  TYR     5       3.121   4.964   8.284  1.00  0.00     0.191 C 
BRANCH   5   6
ATOM      6  N   TYR     5       2.388   6.257   8.271  1.00  0.00    -0.228 NA
ATOM      7  C   GLU     4       1.686   6.692   7.212  1.00  0.00     0.274 C 
ATOM      8  O   GLU     4       1.479   5.997   6.226  1.00  0.00    -0.268 OA
BRANCH   7   9
ATOM      9  CA  GLU     4       0.874   7.986   7.424  1.00  0.00     0.187 C 
BRANCH   9  10
ATOM     10  CB  GLU     4       1.703   9.201   6.976  1.00  0.00     0.045 C 
BRANCH  10  11
ATOM     11  CG  GLU     4       2.771   9.704   7.972  1.00  0.00     0.100 C 
BRANCH  11  12
ATOM     12  CD  GLU     4       2.388  10.985   8.712  1.00  0.00     0.185 C 
ATOM     13  OE1 GLU     4       2.246  12.030   8.024  1.00  0.00    -0.647 OA
ATOM     14  OE2 GLU     4       2.693  11.047   9.920  1.00  0.00    -0.647 OA
ENDBRANCH  11  12
ENDBRANCH  10  11
ENDBRANCH   9  10
BRANCH   9  15
ATOM     15  N   GLU     4       0.458   8.190   8.825  1.00  0.00    -0.229 NA
ATOM     16  C   PRO     3      -0.460   7.522   9.513  1.00  0.00     0.272 C 
ATOM     17  O   PRO     3      -0.843   6.391   9.208  1.00  0.00    -0.269 OA
BRANCH  16  18
ATOM     18  CA  PRO     3      -0.658   7.984  10.958  1.00  0.00     0.165 C 
ATOM     19  N   PRO     3      -1.966   7.631  11.550  1.00  0.00    -0.312 N 
ATOM     20  CD  PRO     3      -1.776   7.203  12.960  1.00  0.00     0.105 C 
ATOM     21  C   ASP     2      -3.146   7.828  10.935  1.00  0.00     0.257 C 
ATOM     22  CG  PRO     3      -0.304   7.526  13.260  1.00  0.00     0.027 C 
ATOM     23  CB  PRO     3       0.382   7.386  11.904  1.00  0.00     0.034 C 
ATOM     24  O   ASP     2      -3.210   8.521   9.909  1.00  0.00    -0.270 OA
BRANCH  21  25
ATOM     25  CA  ASP     2      -4.458   7.500  11.685  1.00  0.00     0.195 C 
BRANCH  25  26
ATOM     26  CB  ASP     2      -4.604   6.051  12.218  1.00  0.00     0.132 C 
BRANCH  26  27
ATOM     27  CG  ASP     2      -4.470   5.038  11.065  1.00  0.00     0.188 C 
ATOM     28  OD2 ASP     2      -5.464   4.291  10.883  1.00  0.00    -0.647 OA
ATOM     29  OD1 ASP     2      -3.311   4.630  10.805  1.00  0.00    -0.647 OA
ENDBRANCH  26  27
ENDBRANCH  25  26
BRANCH  25  30
ATOM     30  N   ASP     2      -5.640   7.641  10.818  1.00  0.00    -0.228 NA
ATOM     31  C   TYR     1      -6.797   8.167  11.149  1.00  0.00     0.289 C 
ATOM     32  O   TYR     1      -7.091   8.766  12.188  1.00  0.00    -0.268 OA
BRANCH  31  33
ATOM     33  CA  TYR     1      -7.853   7.947  10.071  1.00  0.00     0.385 C 
ATOM     34  N   TYR     1      -8.094   9.238   9.404  1.00  0.00     0.626 N 
BRANCH  33  35
ATOM     35  CB  TYR     1      -7.313   6.887   9.114  1.00  0.00     0.075 C 
BRANCH  35  36
ATOM     36  CG  TYR     1      -8.327   5.771   8.818  1.00  0.00    -0.019 A 
ATOM     37  CD2 TYR     1      -7.919   4.464   8.597  1.00  0.00    -0.002 A 
ATOM     38  CE2 TYR     1      -8.859   3.453   8.468  1.00  0.00     0.027 A 
ATOM     39  CZ  TYR     1     -10.214   3.768   8.557  1.00  0.00     0.131 A 
ATOM     40  CE1 TYR     1     -10.615   5.080   8.737  1.00  0.00     0.027 A 
ATOM     41  OH  TYR     1     -11.136   2.787   8.622  1.00  0.00    -0.190 OA
ATOM     42  CD1 TYR     1      -9.675   6.092   8.866  1.00  0.00    -0.002 A 
ENDBRANCH  35  36
ENDBRANCH  33  35
ENDBRANCH  31  33
ENDBRANCH  25  30
ENDBRANCH  21  25
ENDBRANCH  16  18
ENDBRANCH   9  15
ENDBRANCH   7   9
ENDBRANCH   5   6
BRANCH   5  43
ATOM     43  CB  TYR     5       4.635   5.217   8.393  1.00  0.00     0.060 C 
BRANCH  43  44
ATOM     44  CG  TYR     5       5.449   4.290   7.475  1.00  0.00    -0.020 A 
ATOM     45  CD2 TYR     5       4.997   3.010   7.182  1.00  0.00    -0.002 A 
ATOM     46  CE2 TYR     5       5.737   2.181   6.344  1.00  0.00     0.027 A 
ATOM     47  CZ  TYR     5       6.929   2.632   5.800  1.00  0.00     0.131 A 
ATOM     48  CE1 TYR     5       7.380   3.919   6.074  1.00  0.00     0.027 A 
ATOM     49  OH  TYR     5       7.721   1.789   5.101  1.00  0.00    -0.190 OA
ATOM     50  CD1 TYR     5       6.641   4.745   6.921  1.00  0.00    -0.002 A 
ENDBRANCH  43  44
ENDBRANCH   5  43
ENDBRANCH   3   5
ENDBRANCH   1   2
BRANCH   1  51
ATOM     51  CB  ARG     6       0.050   3.305  11.458  1.00  0.00     0.036 C 
BRANCH  51  52
ATOM     52  CG  ARG     6       0.530   2.852  12.840  1.00  0.00     0.029 C 
BRANCH  52  53
ATOM     53  CD  ARG     6       1.739   1.931  12.707  1.00  0.00     0.145 C 
BRANCH  53  54
ATOM     54  NE  ARG     6       1.341   0.518  12.816  1.00  0.00    -0.083 NA
ATOM     55  CZ  ARG     6       1.840  -0.493  12.080  1.00  0.00     0.782 C 
ATOM     56  NH2 ARG     6       1.347  -1.728  12.202  1.00  0.00     0.063 N 
ATOM     57  NH1 ARG     6       2.770  -0.259  11.161  1.00  0.00     0.063 N 
ENDBRANCH  53  54
ENDBRANCH  52  53
ENDBRANCH  51  52
ENDBRANCH   1  51
BRANCH   1  58
ATOM     58  C   ARG     6      -0.195   1.676   9.640  1.00  0.00     0.274 C 
ATOM     59  N   ASN     7      -1.482   1.911   9.884  1.00  0.00    -0.228 NA
ATOM     60  O   ARG     6       0.237   0.759   8.941  1.00  0.00    -0.268 OA
BRANCH  59  61
ATOM     61  CA  ASN     7      -2.582   1.150   9.257  1.00  0.00     0.196 C 
BRANCH  61  62
ATOM     62  C   ASN     7      -3.105   1.852   7.988  1.00  0.00     0.275 C 
ATOM     63  N   PHE     8      -4.049   2.789   8.158  1.00  0.00    -0.228 NA
ATOM     64  O   ASN     7      -2.396   1.812   7.001  1.00  0.00    -0.268 OA
BRANCH  63  65
ATOM     65  CA  PHE     8      -4.613   3.630   7.074  1.00  0.00     0.191 C 
BRANCH  65  66
ATOM     66  CB  PHE     8      -3.490   4.519   6.522  1.00  0.00     0.060 C 
BRANCH  66  67
ATOM     67  CG  PHE     8      -3.956   5.905   6.038  1.00  0.00    -0.020 A 
ATOM     68  CD1 PHE     8      -4.072   6.162   4.679  1.00  0.00    -0.004 A 
ATOM     69  CE1 PHE     8      -4.394   7.446   4.239  1.00  0.00    -0.000 A 
ATOM     70  CZ  PHE     8      -4.611   8.454   5.164  1.00  0.00    -0.000 A 
ATOM     71  CE2 PHE     8      -4.509   8.197   6.527  1.00  0.00    -0.000 A 
ATOM     72  CD2 PHE     8      -4.187   6.913   6.966  1.00  0.00    -0.004 A 
ENDBRANCH  66  67
ENDBRANCH  65  66
BRANCH  65  73
ATOM     73  C   PHE     8      -5.331   2.851   5.949  1.00  0.00     0.275 C 
ATOM     74  N   TRP     9      -6.353   2.079   6.320  1.00  0.00    -0.228 NA
ATOM     75  O   PHE     8      -4.829   2.753   4.826  1.00  0.00    -0.268 OA
BRANCH  74  76
ATOM     76  CA  TRP     9      -7.207   1.374   5.333  1.00  0.00     0.191 C 
BRANCH  76  77
ATOM     77  CB  TRP     9      -7.638   2.373   4.247  1.00  0.00     0.062 C 
BRANCH  77  78
ATOM     78  CG  TRP     9      -8.797   3.271   4.681  1.00  0.00     0.001 A 
ATOM     79  CD1 TRP     9     -10.091   3.000   4.537  1.00  0.00     0.095 A 
ATOM     80  NE1 TRP     9     -10.804   4.099   4.743  1.00  0.00    -0.244 NA
ATOM     81  CE2 TRP     9      -9.994   5.103   5.044  1.00  0.00     0.081 A 
ATOM     82  CD2 TRP     9      -8.696   4.620   5.003  1.00  0.00     0.015 A 
ATOM     83  CZ2 TRP     9     -10.213   6.464   5.261  1.00  0.00     0.019 A 
ATOM     84  CE3 TRP     9      -7.614   5.475   5.158  1.00  0.00     0.001 A 
ATOM     85  CZ3 TRP     9      -7.830   6.834   5.361  1.00  0.00     0.000 A 
ATOM     86  CH2 TRP     9      -9.134   7.319   5.430  1.00  0.00     0.002 A 
ENDBRANCH  77  78
ENDBRANCH  76  77
BRANCH  76  87
ATOM     87  C   TRP     9      -6.567   0.108   4.720  1.00  0.00     0.275 C 
ATOM     88  O   TRP     9      -5.562  -0.393   5.215  1.00  0.00    -0.268 OA
ATOM     89  N   GLY    10      -7.223  -0.450   3.703  1.00  0.00    -0.226 NA
BRANCH  89  90
ATOM     90  CA  GLY    10      -6.792  -1.694   3.009  1.00  0.00     0.218 C 
BRANCH  90  91
ATOM     91  C   GLY    10      -7.912  -2.642   2.550  1.00  0.00     0.277 C 
ATOM     92  N   CYS    11      -8.024  -3.765   3.258  1.00  0.00    -0.228 NA
ATOM     93  O   GLY    10      -8.517  -2.433   1.505  1.00  0.00    -0.268 OA
BRANCH  92  94
ATOM     94  CA  CYS    11      -9.021  -4.840   3.054  1.00  0.00     0.198 C 
BRANCH  94  95
ATOM     95  C   CYS    11     -10.319  -4.431   3.778  1.00  0.00     0.275 C 
ATOM     96  O   CYS    11     -11.105  -3.679   3.212  1.00  0.00    -0.268 OA
ATOM     97  N   GLY    12     -10.404  -4.767   5.057  1.00  0.00    -0.225 NA
BRANCH  97  98
ATOM     98  CA  GLY    12     -11.566  -4.439   5.897  1.00  0.00     0.226 C 
BRANCH  98  99
ATOM     99  C   GLY    12     -11.063  -3.623   7.110  1.00  0.00     0.211 C 
ATOM    100  O1  GLY    12      -9.919  -3.113   7.012  1.00  0.00    -0.646 OA
ATOM    101  O2  GLY    12     -11.831  -3.496   8.082  1.00  0.00    -0.646 OA
ENDBRANCH  98  99
ENDBRANCH  97  98
ENDBRANCH  94  95
BRANCH  94 102
ATOM    102  CB  CYS    11      -8.557  -6.124   3.737  1.00  0.00     0.103 C 
ATOM    103  SG  CYS    11      -7.103  -6.957   2.989  1.00  0.00    -0.080 SA
ENDBRANCH  94 102
ENDBRANCH  92  94
ENDBRANCH  90  91
ENDBRANCH  89  90
ENDBRANCH  76  87
ENDBRANCH  74  76
ENDBRANCH  65  73
ENDBRANCH  63  65
ENDBRANCH  61  62
BRANCH  61 104
ATOM    104  CB  ASN     7      -3.723   0.899  10.251  1.00  0.00     0.126 C 
BRANCH 104 105
ATOM    105  CG  ASN     7      -4.561  -0.361   9.969  1.00  0.00     0.276 C 
ATOM    106  ND2 ASN     7      -4.536  -1.290  10.897  1.00  0.00    -0.107 N 
ATOM    107  OD1 ASN     7      -5.107  -0.619   8.903  1.00  0.00    -0.269 OA
ENDBRANCH 104 105
ENDBRANCH  61 104
ENDBRANCH  59  61
ENDBRANCH   1  58
TORSDOF 42
ENDMDL
MODEL 3
REMARK VINA RESULT:      -5.8      3.971      7.920
REMARK WARNING: 32 MAX_TORS EXCEEDED!!!
REMARK  42 active torsions:
REMARK  status: ('A' for Active; 'I' for Inactive)
REMARK    1  A    between atoms: CA_2  and  CB_3 
REMARK    2  A    between atoms: CA_2  and  C_11 
REMARK    3  A    between atoms: CB_3  and  CG_4 
REMARK       I    between atoms: C_11  and  N_13 
REMARK    4  A    between atoms: N_13  and  CA_14 
REMARK    5  A    between atoms: CA_14  and  CB_15 
REMARK    6  A    between atoms: CA_14  and  C_19 
REMARK    7  A    between atoms: CB_15  and  CG_16 
REMARK       I    between atoms: C_19  and  N_21 
REMARK    8  A    between atoms: CA_22  and  C_26 
REMARK       I    between atoms: C_26  and  N_28 
REMARK    9  A    between atoms: N_28  and  CA_29 
REMARK   10  A    between atoms: CA_29  and  C_35 
REMARK   11  A    between atoms: CA_29  and  CB_30 
REMARK   12  A    between atoms: CB_30  and  CG_31 
REMARK   13  A    between atoms: CG_31  and  CD_32 
REMARK       I    between atoms: C_35  and  N_37 
REMARK   14  A    between atoms: N_37  and  CA_38 
REMARK   15  A    between atoms: CA_38  and  CB_39 
REMARK   16  A    between atoms: CA_38  and  C_47 
REMARK   17  A    between atoms: CB_39  and  CG_40 
REMARK       I    between atoms: C_47  and  N_49 
REMARK   18  A    between atoms: N_49  and  CA_50 
REMARK   19  A    between atoms: CA_50  and  CB_51 
REMARK   20  A    between atoms: CA_50  and  C_58 
REMARK   21  A    between atoms: CB_51  and  CG_52 
REMARK   22  A    between atoms: CG_52  and  CD_53 
REMARK   23  A    between atoms: CD_53  and  NE_54 
REMARK       I    between atoms: C_58  and  N_60 
REMARK   24  A    between atoms: N_60  and  CA_61 
REMARK   25  A    between atoms: CA_61  and  C_66 
REMARK   26  A    between atoms: CA_61  and  CB_62 
REMARK   27  A    between atoms: CB_62  and  CG_63 
REMARK       I    between atoms: C_66  and  N_68 
REMARK   28  A    between atoms: N_68  and  CA_69 
REMARK   29  A    between atoms: CA_69  and  CB_70 
REMARK   30  A    between atoms: CA_69  and  C_77 
REMARK   31  A    between atoms: CB_70  and  CG_71 
REMARK       I    between atoms: C_77  and  N_79 
REMARK   32  A    between atoms: N_79  and  CA_80 
REMARK   33  A    between atoms: CA_80  and  CB_81 
REMARK   34  A    between atoms: CA_80  and  C_91 
REMARK   35  A    between atoms: CB_81  and  CG_82 
REMARK       I    between atoms: C_91  and  N_93 
REMARK   36  A    between atoms: N_93  and  CA_94 
REMARK   37  A    between atoms: CA_94  and  C_95 
REMARK       I    between atoms: C_95  and  N_97 
REMARK   38  A    between atoms: N_97  and  CA_98 
REMARK   39  A    between atoms: CA_98  and  C_101 
REMARK   40  A    between atoms: CA_98  and  CB_99 
REMARK       I    between atoms: C_101  and  N_103 
REMARK   41  A    between atoms: N_103  and  CA_104 
REMARK   42  A    between atoms: CA_104  and  C_105 
ROOT
ATOM      1  CA  ARG     6      -9.294   1.129   9.660  1.00  0.00     0.186 C 
ENDROOT
BRANCH   1   2
ATOM      2  N   ARG     6      -9.399   2.209   8.651  1.00  0.00    -0.229 NA
ATOM      3  C   TYR     5     -10.179   3.283   8.827  1.00  0.00     0.275 C 
ATOM      4  O   TYR     5     -10.839   3.456   9.852  1.00  0.00    -0.268 OA
BRANCH   3   5
ATOM      5  CA  TYR     5     -10.138   4.365   7.736  1.00  0.00     0.191 C 
BRANCH   5   6
ATOM      6  N   TYR     5      -9.647   5.680   8.224  1.00  0.00    -0.228 NA
ATOM      7  C   GLU     4      -8.422   5.859   8.745  1.00  0.00     0.274 C 
ATOM      8  O   GLU     4      -7.565   4.985   8.731  1.00  0.00    -0.268 OA
BRANCH   7   9
ATOM      9  CA  GLU     4      -8.030   7.315   9.069  1.00  0.00     0.187 C 
BRANCH   9  10
ATOM     10  CB  GLU     4      -8.921   8.284   8.275  1.00  0.00     0.045 C 
BRANCH  10  11
ATOM     11  CG  GLU     4      -8.345   8.803   6.939  1.00  0.00     0.100 C 
BRANCH  11  12
ATOM     12  CD  GLU     4      -8.944   8.143   5.697  1.00  0.00     0.185 C 
ATOM     13  OE1 GLU     4     -10.151   8.389   5.437  1.00  0.00    -0.647 OA
ATOM     14  OE2 GLU     4      -8.404   7.089   5.307  1.00  0.00    -0.647 OA
ENDBRANCH  11  12
ENDBRANCH  10  11
ENDBRANCH   9  10
BRANCH   9  15
ATOM     15  N   GLU     4      -6.618   7.618   8.766  1.00  0.00    -0.229 NA
ATOM     16  C   PRO     3      -5.573   7.555   9.582  1.00  0.00     0.272 C 
ATOM     17  O   PRO     3      -5.559   6.880  10.613  1.00  0.00    -0.269 OA
BRANCH  16  18
ATOM     18  CA  PRO     3      -4.231   7.940   8.956  1.00  0.00     0.165 C 
ATOM     19  N   PRO     3      -4.060   7.522   7.548  1.00  0.00    -0.312 N 
ATOM     20  CD  PRO     3      -3.382   8.602   6.786  1.00  0.00     0.105 C 
ATOM     21  C   ASP     2      -4.340   6.288   7.091  1.00  0.00     0.257 C 
ATOM     22  CG  PRO     3      -2.953   9.613   7.861  1.00  0.00     0.027 C 
ATOM     23  CB  PRO     3      -4.005   9.450   8.954  1.00  0.00     0.034 C 
ATOM     24  O   ASP     2      -4.560   5.361   7.884  1.00  0.00    -0.270 OA
BRANCH  21  25
ATOM     25  CA  ASP     2      -4.041   5.938   5.615  1.00  0.00     0.195 C 
BRANCH  25  26
ATOM     26  CB  ASP     2      -5.015   6.519   4.558  1.00  0.00     0.132 C 
BRANCH  26  27
ATOM     27  CG  ASP     2      -4.234   7.058   3.345  1.00  0.00     0.188 C 
ATOM     28  OD2 ASP     2      -3.709   6.185   2.607  1.00  0.00    -0.647 OA
ATOM     29  OD1 ASP     2      -3.697   8.186   3.476  1.00  0.00    -0.647 OA
ENDBRANCH  26  27
ENDBRANCH  25  26
BRANCH  25  30
ATOM     30  N   ASP     2      -4.124   4.490   5.362  1.00  0.00    -0.228 NA
ATOM     31  C   TYR     1      -5.202   3.807   5.057  1.00  0.00     0.289 C 
ATOM     32  O   TYR     1      -6.327   4.241   4.788  1.00  0.00    -0.268 OA
BRANCH  31  33
ATOM     33  CA  TYR     1      -4.952   2.302   5.082  1.00  0.00     0.385 C 
ATOM     34  N   TYR     1      -3.756   2.058   5.906  1.00  0.00     0.626 N 
BRANCH  33  35
ATOM     35  CB  TYR     1      -6.202   1.641   5.658  1.00  0.00     0.075 C 
BRANCH  35  36
ATOM     36  CG  TYR     1      -6.673   0.430   4.838  1.00  0.00    -0.019 A 
ATOM     37  CD2 TYR     1      -8.020   0.189   4.614  1.00  0.00    -0.002 A 
ATOM     38  CE2 TYR     1      -8.413  -0.830   3.760  1.00  0.00     0.027 A 
ATOM     39  CZ  TYR     1      -7.439  -1.611   3.139  1.00  0.00     0.131 A 
ATOM     40  CE1 TYR     1      -6.098  -1.391   3.400  1.00  0.00     0.027 A 
ATOM     41  OH  TYR     1      -7.784  -2.479   2.167  1.00  0.00    -0.190 OA
ATOM     42  CD1 TYR     1      -5.705  -0.372   4.253  1.00  0.00    -0.002 A 
ENDBRANCH  35  36
ENDBRANCH  33  35
ENDBRANCH  31  33
ENDBRANCH  25  30
ENDBRANCH  21  25
ENDBRANCH  16  18
ENDBRANCH   9  15
ENDBRANCH   7   9
ENDBRANCH   5   6
BRANCH   5  43
ATOM     43  CB  TYR     5      -9.299   3.901   6.534  1.00  0.00     0.060 C 
BRANCH  43  44
ATOM     44  CG  TYR     5     -10.141   3.760   5.255  1.00  0.00    -0.020 A 
ATOM     45  CD2 TYR     5      -9.548   3.389   4.055  1.00  0.00    -0.002 A 
ATOM     46  CE2 TYR     5     -10.319   3.256   2.904  1.00  0.00     0.027 A 
ATOM     47  CZ  TYR     5     -11.684   3.494   2.953  1.00  0.00     0.131 A 
ATOM     48  CE1 TYR     5     -12.289   3.848   4.154  1.00  0.00     0.027 A 
ATOM     49  OH  TYR     5     -12.415   3.503   1.817  1.00  0.00    -0.190 OA
ATOM     50  CD1 TYR     5     -11.512   3.989   5.304  1.00  0.00    -0.002 A 
ENDBRANCH  43  44
ENDBRANCH   5  43
ENDBRANCH   3   5
ENDBRANCH   1   2
BRANCH   1  51
ATOM     51  CB  ARG     6      -9.318  -0.266   9.041  1.00  0.00     0.036 C 
BRANCH  51  52
ATOM     52  CG  ARG     6     -10.413  -1.172   9.609  1.00  0.00     0.029 C 
BRANCH  52  53
ATOM     53  CD  ARG     6     -11.502  -1.406   8.567  1.00  0.00     0.145 C 
BRANCH  53  54
ATOM     54  NE  ARG     6     -11.141  -0.791   7.279  1.00  0.00    -0.083 NA
ATOM     55  CZ  ARG     6     -11.962  -0.050   6.509  1.00  0.00     0.782 C 
ATOM     56  NH2 ARG     6     -11.557   0.391   5.316  1.00  0.00     0.063 N 
ATOM     57  NH1 ARG     6     -13.214   0.177   6.890  1.00  0.00     0.063 N 
ENDBRANCH  53  54
ENDBRANCH  52  53
ENDBRANCH  51  52
ENDBRANCH   1  51
BRANCH   1  58
ATOM     58  C   ARG     6      -8.005   1.220  10.487  1.00  0.00     0.274 C 
ATOM     59  N   ASN     7      -7.037   0.377  10.140  1.00  0.00    -0.228 NA
ATOM     60  O   ARG     6      -7.936   2.040  11.403  1.00  0.00    -0.268 OA
BRANCH  59  61
ATOM     61  CA  ASN     7      -5.693   0.384  10.754  1.00  0.00     0.196 C 
BRANCH  61  62
ATOM     62  C   ASN     7      -4.660   1.085   9.850  1.00  0.00     0.275 C 
ATOM     63  N   PHE     8      -3.566   1.580  10.449  1.00  0.00    -0.228 NA
ATOM     64  O   ASN     7      -4.690   0.818   8.665  1.00  0.00    -0.268 OA
BRANCH  63  65
ATOM     65  CA  PHE     8      -2.424   2.210   9.742  1.00  0.00     0.191 C 
BRANCH  65  66
ATOM     66  CB  PHE     8      -1.997   3.455  10.532  1.00  0.00     0.060 C 
BRANCH  66  67
ATOM     67  CG  PHE     8      -1.534   4.635   9.657  1.00  0.00    -0.020 A 
ATOM     68  CD1 PHE     8      -1.274   4.437   8.308  1.00  0.00    -0.004 A 
ATOM     69  CE1 PHE     8      -0.758   5.481   7.540  1.00  0.00    -0.000 A 
ATOM     70  CZ  PHE     8      -0.521   6.714   8.126  1.00  0.00    -0.000 A 
ATOM     71  CE2 PHE     8      -0.793   6.918   9.475  1.00  0.00    -0.000 A 
ATOM     72  CD2 PHE     8      -1.309   5.874  10.243  1.00  0.00    -0.004 A 
ENDBRANCH  66  67
ENDBRANCH  65  66
BRANCH  65  73
ATOM     73  C   PHE     8      -1.228   1.270   9.467  1.00  0.00     0.275 C 
ATOM     74  N   TRP     9      -0.360   1.106  10.466  1.00  0.00    -0.228 NA
ATOM     75  O   PHE     8      -0.961   0.904   8.320  1.00  0.00    -0.268 OA
BRANCH  74  76
ATOM     76  CA  TRP     9       0.763   0.140  10.383  1.00  0.00     0.191 C 
BRANCH  76  77
ATOM     77  CB  TRP     9       2.056   0.844  10.825  1.00  0.00     0.062 C 
BRANCH  77  78
ATOM     78  CG  TRP     9       2.879   1.381   9.655  1.00  0.00     0.001 A 
ATOM     79  CD1 TRP     9       3.893   0.758   9.062  1.00  0.00     0.095 A 
ATOM     80  NE1 TRP     9       4.560   1.613   8.298  1.00  0.00    -0.244 NA
ATOM     81  CE2 TRP     9       3.985   2.805   8.361  1.00  0.00     0.081 A 
ATOM     82  CD2 TRP     9       2.911   2.706   9.231  1.00  0.00     0.015 A 
ATOM     83  CZ2 TRP     9       4.327   4.050   7.833  1.00  0.00     0.019 A 
ATOM     84  CE3 TRP     9       2.184   3.830   9.593  1.00  0.00     0.001 A 
ATOM     85  CZ3 TRP     9       2.531   5.075   9.078  1.00  0.00     0.000 A 
ATOM     86  CH2 TRP     9       3.594   5.175   8.183  1.00  0.00     0.002 A 
ENDBRANCH  77  78
ENDBRANCH  76  77
BRANCH  76  87
ATOM     87  C   TRP     9       0.536  -1.176  11.162  1.00  0.00     0.275 C 
ATOM     88  O   TRP     9      -0.527  -1.783  11.075  1.00  0.00    -0.268 OA
ATOM     89  N   GLY    10       1.583  -1.648  11.837  1.00  0.00    -0.226 NA
BRANCH  89  90
ATOM     90  CA  GLY    10       1.576  -2.920  12.611  1.00  0.00     0.218 C 
BRANCH  90  91
ATOM     91  C   GLY    10       1.945  -4.194  11.833  1.00  0.00     0.277 C 
ATOM     92  N   CYS    11       3.222  -4.278  11.463  1.00  0.00    -0.228 NA
ATOM     93  O   GLY    10       1.072  -4.964  11.449  1.00  0.00    -0.268 OA
BRANCH  92  94
ATOM     94  CA  CYS    11       3.855  -5.396  10.729  1.00  0.00     0.198 C 
BRANCH  94  95
ATOM     95  C   CYS    11       5.192  -5.728  11.421  1.00  0.00     0.275 C 
ATOM     96  O   CYS    11       5.176  -6.193  12.555  1.00  0.00    -0.268 OA
ATOM     97  N   GLY    12       6.286  -5.297  10.810  1.00  0.00    -0.225 NA
BRANCH  97  98
ATOM     98  CA  GLY    12       7.640  -5.514  11.343  1.00  0.00     0.226 C 
BRANCH  98  99
ATOM     99  C   GLY    12       8.606  -4.571  10.591  1.00  0.00     0.211 C 
ATOM    100  O1  GLY    12       8.509  -4.546   9.337  1.00  0.00    -0.646 OA
ATOM    101  O2  GLY    12       9.386  -3.877  11.269  1.00  0.00    -0.646 OA
ENDBRANCH  98  99
ENDBRANCH  97  98
ENDBRANCH  94  95
BRANCH  94 102
ATOM    102  CB  CYS    11       4.222  -4.955   9.314  1.00  0.00     0.103 C 
ATOM    103  SG  CYS    11       2.868  -4.996   8.077  1.00  0.00    -0.080 SA
ENDBRANCH  94 102
ENDBRANCH  92  94
ENDBRANCH  90  91
ENDBRANCH  89  90
ENDBRANCH  76  87
ENDBRANCH  74  76
ENDBRANCH  65  73
ENDBRANCH  63  65
ENDBRANCH  61  62
BRANCH  61 104
ATOM    104  CB  ASN     7      -5.234  -1.037  11.106  1.00  0.00     0.126 C 
BRANCH 104 105
ATOM    105  CG  ASN     7      -4.886  -1.256  12.590  1.00  0.00     0.276 C 
ATOM    106  ND2 ASN     7      -5.102  -2.463  13.061  1.00  0.00    -0.107 N 
ATOM    107  OD1 ASN     7      -4.582  -0.370  13.379  1.00  0.00    -0.269 OA
ENDBRANCH 104 105
ENDBRANCH  61 104
ENDBRANCH  59  61
ENDBRANCH   1  58
TORSDOF 42
ENDMDL
MODEL 4
REMARK VINA RESULT:      -5.6     17.240     26.043
REMARK WARNING: 32 MAX_TORS EXCEEDED!!!
REMARK  42 active torsions:
REMARK  status: ('A' for Active; 'I' for Inactive)
REMARK    1  A    between atoms: CA_2  and  CB_3 
REMARK    2  A    between atoms: CA_2  and  C_11 
REMARK    3  A    between atoms: CB_3  and  CG_4 
REMARK       I    between atoms: C_11  and  N_13 
REMARK    4  A    between atoms: N_13  and  CA_14 
REMARK    5  A    between atoms: CA_14  and  CB_15 
REMARK    6  A    between atoms: CA_14  and  C_19 
REMARK    7  A    between atoms: CB_15  and  CG_16 
REMARK       I    between atoms: C_19  and  N_21 
REMARK    8  A    between atoms: CA_22  and  C_26 
REMARK       I    between atoms: C_26  and  N_28 
REMARK    9  A    between atoms: N_28  and  CA_29 
REMARK   10  A    between atoms: CA_29  and  C_35 
REMARK   11  A    between atoms: CA_29  and  CB_30 
REMARK   12  A    between atoms: CB_30  and  CG_31 
REMARK   13  A    between atoms: CG_31  and  CD_32 
REMARK       I    between atoms: C_35  and  N_37 
REMARK   14  A    between atoms: N_37  and  CA_38 
REMARK   15  A    between atoms: CA_38  and  CB_39 
REMARK   16  A    between atoms: CA_38  and  C_47 
REMARK   17  A    between atoms: CB_39  and  CG_40 
REMARK       I    between atoms: C_47  and  N_49 
REMARK   18  A    between atoms: N_49  and  CA_50 
REMARK   19  A    between atoms: CA_50  and  CB_51 
REMARK   20  A    between atoms: CA_50  and  C_58 
REMARK   21  A    between atoms: CB_51  and  CG_52 
REMARK   22  A    between atoms: CG_52  and  CD_53 
REMARK   23  A    between atoms: CD_53  and  NE_54 
REMARK       I    between atoms: C_58  and  N_60 
REMARK   24  A    between atoms: N_60  and  CA_61 
REMARK   25  A    between atoms: CA_61  and  C_66 
REMARK   26  A    between atoms: CA_61  and  CB_62 
REMARK   27  A    between atoms: CB_62  and  CG_63 
REMARK       I    between atoms: C_66  and  N_68 
REMARK   28  A    between atoms: N_68  and  CA_69 
REMARK   29  A    between atoms: CA_69  and  CB_70 
REMARK   30  A    between atoms: CA_69  and  C_77 
REMARK   31  A    between atoms: CB_70  and  CG_71 
REMARK       I    between atoms: C_77  and  N_79 
REMARK   32  A    between atoms: N_79  and  CA_80 
REMARK   33  A    between atoms: CA_80  and  CB_81 
REMARK   34  A    between atoms: CA_80  and  C_91 
REMARK   35  A    between atoms: CB_81  and  CG_82 
REMARK       I    between atoms: C_91  and  N_93 
REMARK   36  A    between atoms: N_93  and  CA_94 
REMARK   37  A    between atoms: CA_94  and  C_95 
REMARK       I    between atoms: C_95  and  N_97 
REMARK   38  A    between atoms: N_97  and  CA_98 
REMARK   39  A    between atoms: CA_98  and  C_101 
REMARK   40  A    between atoms: CA_98  and  CB_99 
REMARK       I    between atoms: C_101  and  N_103 
REMARK   41  A    between atoms: N_103  and  CA_104 
REMARK   42  A    between atoms: CA_104  and  C_105 
ROOT
ATOM      1  CA  ARG     6      12.129 -18.787   8.215  1.00  0.00     0.186 C 
ENDROOT
BRANCH   1   2
ATOM      2  N   ARG     6      10.767 -18.466   8.701  1.00  0.00    -0.229 NA
ATOM      3  C   TYR     5      10.549 -17.818   9.852  1.00  0.00     0.275 C 
ATOM      4  O   TYR     5      11.469 -17.420  10.568  1.00  0.00    -0.268 OA
BRANCH   3   5
ATOM      5  CA  TYR     5       9.090 -17.482  10.203  1.00  0.00     0.191 C 
BRANCH   5   6
ATOM      6  N   TYR     5       8.098 -18.231   9.389  1.00  0.00    -0.228 NA
ATOM      7  C   GLU     4       7.465 -17.698   8.331  1.00  0.00     0.274 C 
ATOM      8  O   GLU     4       7.757 -16.603   7.869  1.00  0.00    -0.268 OA
BRANCH   7   9
ATOM      9  CA  GLU     4       6.575 -18.662   7.519  1.00  0.00     0.187 C 
BRANCH   9  10
ATOM     10  CB  GLU     4       5.988 -17.929   6.301  1.00  0.00     0.045 C 
BRANCH  10  11
ATOM     11  CG  GLU     4       6.579 -18.308   4.925  1.00  0.00     0.100 C 
BRANCH  11  12
ATOM     12  CD  GLU     4       7.907 -19.061   4.997  1.00  0.00     0.185 C 
ATOM     13  OE1 GLU     4       8.932 -18.396   5.300  1.00  0.00    -0.647 OA
ATOM     14  OE2 GLU     4       7.995 -20.107   4.324  1.00  0.00    -0.647 OA
ENDBRANCH  11  12
ENDBRANCH  10  11
ENDBRANCH   9  10
BRANCH   9  15
ATOM     15  N   GLU     4       5.465 -19.232   8.305  1.00  0.00    -0.229 NA
ATOM     16  C   PRO     3       4.505 -20.053   7.894  1.00  0.00     0.272 C 
ATOM     17  O   PRO     3       4.604 -20.759   6.889  1.00  0.00    -0.269 OA
BRANCH  16  18
ATOM     18  CA  PRO     3       3.493 -20.464   8.966  1.00  0.00     0.165 C 
ATOM     19  N   PRO     3       2.091 -20.103   8.667  1.00  0.00    -0.312 N 
ATOM     20  CD  PRO     3       1.192 -21.213   9.075  1.00  0.00     0.105 C 
ATOM     21  C   ASP     2       1.703 -18.888   8.239  1.00  0.00     0.257 C 
ATOM     22  CG  PRO     3       2.108 -22.180   9.841  1.00  0.00     0.027 C 
ATOM     23  CB  PRO     3       3.476 -21.973   9.197  1.00  0.00     0.034 C 
ATOM     24  O   ASP     2       2.489 -17.929   8.277  1.00  0.00    -0.270 OA
BRANCH  21  25
ATOM     25  CA  ASP     2       0.198 -18.597   8.041  1.00  0.00     0.195 C 
BRANCH  25  26
ATOM     26  CB  ASP     2      -0.312 -18.572   6.577  1.00  0.00     0.132 C 
BRANCH  26  27
ATOM     27  CG  ASP     2      -0.831 -19.962   6.164  1.00  0.00     0.188 C 
ATOM     28  OD2 ASP     2      -0.146 -20.560   5.296  1.00  0.00    -0.647 OA
ATOM     29  OD1 ASP     2      -2.072 -20.144   6.232  1.00  0.00    -0.647 OA
ENDBRANCH  26  27
ENDBRANCH  25  26
BRANCH  25  30
ATOM     30  N   ASP     2      -0.177 -17.259   8.531  1.00  0.00    -0.228 NA
ATOM     31  C   TYR     1      -1.329 -16.910   9.055  1.00  0.00     0.289 C 
ATOM     32  O   TYR     1      -2.274 -17.640   9.369  1.00  0.00    -0.268 OA
BRANCH  31  33
ATOM     33  CA  TYR     1      -1.434 -15.400   9.246  1.00  0.00     0.385 C 
ATOM     34  N   TYR     1      -0.197 -14.940   9.899  1.00  0.00     0.626 N 
BRANCH  33  35
ATOM     35  CB  TYR     1      -1.632 -14.779   7.865  1.00  0.00     0.075 C 
BRANCH  35  36
ATOM     36  CG  TYR     1      -2.814 -13.800   7.810  1.00  0.00    -0.019 A 
ATOM     37  CD2 TYR     1      -2.935 -12.761   8.720  1.00  0.00    -0.002 A 
ATOM     38  CE2 TYR     1      -3.935 -11.812   8.567  1.00  0.00     0.027 A 
ATOM     39  CZ  TYR     1      -4.817 -11.921   7.493  1.00  0.00     0.131 A 
ATOM     40  CE1 TYR     1      -4.716 -12.984   6.612  1.00  0.00     0.027 A 
ATOM     41  OH  TYR     1      -5.674 -10.918   7.214  1.00  0.00    -0.190 OA
ATOM     42  CD1 TYR     1      -3.717 -13.932   6.766  1.00  0.00    -0.002 A 
ENDBRANCH  35  36
ENDBRANCH  33  35
ENDBRANCH  31  33
ENDBRANCH  25  30
ENDBRANCH  21  25
ENDBRANCH  16  18
ENDBRANCH   9  15
ENDBRANCH   7   9
ENDBRANCH   5   6
BRANCH   5  43
ATOM     43  CB  TYR     5       8.820 -17.705  11.700  1.00  0.00     0.060 C 
BRANCH  43  44
ATOM     44  CG  TYR     5       7.750 -18.782  11.946  1.00  0.00    -0.020 A 
ATOM     45  CD2 TYR     5       8.074 -20.131  11.865  1.00  0.00    -0.002 A 
ATOM     46  CE2 TYR     5       7.101 -21.099  12.097  1.00  0.00     0.027 A 
ATOM     47  CZ  TYR     5       5.805 -20.718  12.410  1.00  0.00     0.131 A 
ATOM     48  CE1 TYR     5       5.478 -19.371  12.510  1.00  0.00     0.027 A 
ATOM     49  OH  TYR     5       4.826 -21.645  12.498  1.00  0.00    -0.190 OA
ATOM     50  CD1 TYR     5       6.452 -18.402  12.269  1.00  0.00    -0.002 A 
ENDBRANCH  43  44
ENDBRANCH   5  43
ENDBRANCH   3   5
ENDBRANCH   1   2
BRANCH   1  51
ATOM     51  CB  ARG     6      12.279 -20.243   7.786  1.00  0.00     0.036 C 
BRANCH  51  52
ATOM     52  CG  ARG     6      10.951 -20.923   7.445  1.00  0.00     0.029 C 
BRANCH  52  53
ATOM     53  CD  ARG     6      11.200 -22.307   6.852  1.00  0.00     0.145 C 
BRANCH  53  54
ATOM     54  NE  ARG     6      12.124 -22.233   5.709  1.00  0.00    -0.083 NA
ATOM     55  CZ  ARG     6      13.340 -22.810   5.648  1.00  0.00     0.782 C 
ATOM     56  NH2 ARG     6      14.133 -22.610   4.594  1.00  0.00     0.063 N 
ATOM     57  NH1 ARG     6      13.799 -23.515   6.676  1.00  0.00     0.063 N 
ENDBRANCH  53  54
ENDBRANCH  52  53
ENDBRANCH  51  52
ENDBRANCH   1  51
BRANCH   1  58
ATOM     58  C   ARG     6      12.540 -17.929   7.011  1.00  0.00     0.274 C 
ATOM     59  N   ASN     7      13.315 -18.531   6.113  1.00  0.00    -0.228 NA
ATOM     60  O   ARG     6      12.148 -16.764   6.941  1.00  0.00    -0.268 OA
BRANCH  59  61
ATOM     61  CA  ASN     7      13.731 -17.899   4.843  1.00  0.00     0.196 C 
BRANCH  61  62
ATOM     62  C   ASN     7      14.594 -16.646   5.088  1.00  0.00     0.275 C 
ATOM     63  N   PHE     8      14.114 -15.480   4.633  1.00  0.00    -0.228 NA
ATOM     64  O   ASN     7      15.421 -16.709   5.978  1.00  0.00    -0.268 OA
BRANCH  63  65
ATOM     65  CA  PHE     8      14.754 -14.158   4.846  1.00  0.00     0.191 C 
BRANCH  65  66
ATOM     66  CB  PHE     8      14.707 -13.382   3.523  1.00  0.00     0.060 C 
BRANCH  66  67
ATOM     67  CG  PHE     8      13.426 -13.608   2.698  1.00  0.00    -0.020 A 
ATOM     68  CD1 PHE     8      12.322 -12.789   2.896  1.00  0.00    -0.004 A 
ATOM     69  CE1 PHE     8      11.130 -13.057   2.223  1.00  0.00    -0.000 A 
ATOM     70  CZ  PHE     8      11.059 -14.130   1.350  1.00  0.00    -0.000 A 
ATOM     71  CE2 PHE     8      12.167 -14.944   1.140  1.00  0.00    -0.000 A 
ATOM     72  CD2 PHE     8      13.360 -14.676   1.813  1.00  0.00    -0.004 A 
ENDBRANCH  66  67
ENDBRANCH  65  66
BRANCH  65  73
ATOM     73  C   PHE     8      14.170 -13.331   6.014  1.00  0.00     0.275 C 
ATOM     74  N   TRP     9      15.045 -12.643   6.749  1.00  0.00    -0.228 NA
ATOM     75  O   PHE     8      13.009 -13.503   6.394  1.00  0.00    -0.268 OA
BRANCH  74  76
ATOM     76  CA  TRP     9      14.613 -11.712   7.820  1.00  0.00     0.191 C 
BRANCH  76  77
ATOM     77  CB  TRP     9      15.608 -11.804   8.989  1.00  0.00     0.062 C 
BRANCH  77  78
ATOM     78  CG  TRP     9      14.982 -12.350  10.271  1.00  0.00     0.001 A 
ATOM     79  CD1 TRP     9      14.815 -13.634  10.574  1.00  0.00     0.095 A 
ATOM     80  NE1 TRP     9      13.988 -13.748  11.605  1.00  0.00    -0.244 NA
ATOM     81  CE2 TRP     9      13.614 -12.543  12.008  1.00  0.00     0.081 A 
ATOM     82  CD2 TRP     9      14.217 -11.616  11.172  1.00  0.00     0.015 A 
ATOM     83  CZ2 TRP     9      12.706 -12.107  12.973  1.00  0.00     0.019 A 
ATOM     84  CE3 TRP     9      13.917 -10.266  11.274  1.00  0.00     0.001 A 
ATOM     85  CZ3 TRP     9      13.001  -9.830  12.227  1.00  0.00     0.000 A 
ATOM     86  CH2 TRP     9      12.413 -10.756  13.087  1.00  0.00     0.002 A 
ENDBRANCH  77  78
ENDBRANCH  76  77
BRANCH  76  87
ATOM     87  C   TRP     9      14.411 -10.251   7.358  1.00  0.00     0.275 C 
ATOM     88  O   TRP     9      13.664  -9.984   6.421  1.00  0.00    -0.268 OA
ATOM     89  N   GLY    10      15.008  -9.313   8.093  1.00  0.00    -0.226 NA
BRANCH  89  90
ATOM     90  CA  GLY    10      14.898  -7.851   7.836  1.00  0.00     0.218 C 
BRANCH  90  91
ATOM     91  C   GLY    10      14.630  -6.961   9.061  1.00  0.00     0.277 C 
ATOM     92  N   CYS    11      13.343  -6.747   9.330  1.00  0.00    -0.228 NA
ATOM     93  O   GLY    10      15.550  -6.370   9.615  1.00  0.00    -0.268 OA
BRANCH  92  94
ATOM     94  CA  CYS    11      12.798  -5.953  10.454  1.00  0.00     0.198 C 
BRANCH  94  95
ATOM     95  C   CYS    11      11.336  -6.386  10.680  1.00  0.00     0.275 C 
ATOM     96  O   CYS    11      11.043  -6.976  11.714  1.00  0.00    -0.268 OA
ATOM     97  N   GLY    12      10.525  -6.263   9.640  1.00  0.00    -0.225 NA
BRANCH  97  98
ATOM     98  CA  GLY    12       9.105  -6.644   9.681  1.00  0.00     0.226 C 
BRANCH  98  99
ATOM     99  C   GLY    12       8.263  -5.348   9.715  1.00  0.00     0.211 C 
ATOM    100  O1  GLY    12       7.226  -5.330   9.005  1.00  0.00    -0.646 OA
ATOM    101  O2  GLY    12       8.644  -4.428  10.463  1.00  0.00    -0.646 OA
ENDBRANCH  98  99
ENDBRANCH  97  98
ENDBRANCH  94  95
BRANCH  94 102
ATOM    102  CB  CYS    11      12.736  -4.476  10.074  1.00  0.00     0.103 C 
ATOM    103  SG  CYS    11      12.086  -3.337  11.357  1.00  0.00    -0.080 SA
ENDBRANCH  94 102
ENDBRANCH  92  94
ENDBRANCH  90  91
ENDBRANCH  89  90
ENDBRANCH  76  87
ENDBRANCH  74  76
ENDBRANCH  65  73
ENDBRANCH  63  65
ENDBRANCH  61  62
BRANCH  61 104
ATOM    104  CB  ASN     7      12.518 -17.563   3.966  1.00  0.00     0.126 C 
BRANCH 104 105
ATOM    105  CG  ASN     7      12.139 -18.649   2.942  1.00  0.00     0.276 C 
ATOM    106  ND2 ASN     7      11.486 -19.685   3.416  1.00  0.00    -0.107 N 
ATOM    107  OD1 ASN     7      12.529 -18.688   1.782  1.00  0.00    -0.269 OA
ENDBRANCH 104 105
ENDBRANCH  61 104
ENDBRANCH  59  61
ENDBRANCH   1  58
TORSDOF 42
ENDMDL
MODEL 5
REMARK VINA RESULT:      -5.6     11.577     18.013
REMARK WARNING: 32 MAX_TORS EXCEEDED!!!
REMARK  42 active torsions:
REMARK  status: ('A' for Active; 'I' for Inactive)
REMARK    1  A    between atoms: CA_2  and  CB_3 
REMARK    2  A    between atoms: CA_2  and  C_11 
REMARK    3  A    between atoms: CB_3  and  CG_4 
REMARK       I    between atoms: C_11  and  N_13 
REMARK    4  A    between atoms: N_13  and  CA_14 
REMARK    5  A    between atoms: CA_14  and  CB_15 
REMARK    6  A    between atoms: CA_14  and  C_19 
REMARK    7  A    between atoms: CB_15  and  CG_16 
REMARK       I    between atoms: C_19  and  N_21 
REMARK    8  A    between atoms: CA_22  and  C_26 
REMARK       I    between atoms: C_26  and  N_28 
REMARK    9  A    between atoms: N_28  and  CA_29 
REMARK   10  A    between atoms: CA_29  and  C_35 
REMARK   11  A    between atoms: CA_29  and  CB_30 
REMARK   12  A    between atoms: CB_30  and  CG_31 
REMARK   13  A    between atoms: CG_31  and  CD_32 
REMARK       I    between atoms: C_35  and  N_37 
REMARK   14  A    between atoms: N_37  and  CA_38 
REMARK   15  A    between atoms: CA_38  and  CB_39 
REMARK   16  A    between atoms: CA_38  and  C_47 
REMARK   17  A    between atoms: CB_39  and  CG_40 
REMARK       I    between atoms: C_47  and  N_49 
REMARK   18  A    between atoms: N_49  and  CA_50 
REMARK   19  A    between atoms: CA_50  and  CB_51 
REMARK   20  A    between atoms: CA_50  and  C_58 
REMARK   21  A    between atoms: CB_51  and  CG_52 
REMARK   22  A    between atoms: CG_52  and  CD_53 
REMARK   23  A    between atoms: CD_53  and  NE_54 
REMARK       I    between atoms: C_58  and  N_60 
REMARK   24  A    between atoms: N_60  and  CA_61 
REMARK   25  A    between atoms: CA_61  and  C_66 
REMARK   26  A    between atoms: CA_61  and  CB_62 
REMARK   27  A    between atoms: CB_62  and  CG_63 
REMARK       I    between atoms: C_66  and  N_68 
REMARK   28  A    between atoms: N_68  and  CA_69 
REMARK   29  A    between atoms: CA_69  and  CB_70 
REMARK   30  A    between atoms: CA_69  and  C_77 
REMARK   31  A    between atoms: CB_70  and  CG_71 
REMARK       I    between atoms: C_77  and  N_79 
REMARK   32  A    between atoms: N_79  and  CA_80 
REMARK   33  A    between atoms: CA_80  and  CB_81 
REMARK   34  A    between atoms: CA_80  and  C_91 
REMARK   35  A    between atoms: CB_81  and  CG_82 
REMARK       I    between atoms: C_91  and  N_93 
REMARK   36  A    between atoms: N_93  and  CA_94 
REMARK   37  A    between atoms: CA_94  and  C_95 
REMARK       I    between atoms: C_95  and  N_97 
REMARK   38  A    between atoms: N_97  and  CA_98 
REMARK   39  A    between atoms: CA_98  and  C_101 
REMARK   40  A    between atoms: CA_98  and  CB_99 
REMARK       I    between atoms: C_101  and  N_103 
REMARK   41  A    between atoms: N_103  and  CA_104 
REMARK   42  A    between atoms: CA_104  and  C_105 
ROOT
ATOM      1  CA  ARG     6     -11.283 -10.729   6.070  1.00  0.00     0.186 C 
ENDROOT
BRANCH   1   2
ATOM      2  N   ARG     6     -11.380  -9.894   4.850  1.00  0.00    -0.229 NA
ATOM      3  C   TYR     5     -11.815  -8.628   4.880  1.00  0.00     0.275 C 
ATOM      4  O   TYR     5     -12.136  -8.066   5.928  1.00  0.00    -0.268 OA
BRANCH   3   5
ATOM      5  CA  TYR     5     -11.796  -7.849   3.555  1.00  0.00     0.191 C 
BRANCH   5   6
ATOM      6  N   TYR     5     -10.465  -7.279   3.221  1.00  0.00    -0.228 NA
ATOM      7  C   GLU     4     -10.115  -6.014   3.508  1.00  0.00     0.274 C 
ATOM      8  O   GLU     4     -10.813  -5.275   4.191  1.00  0.00    -0.268 OA
BRANCH   7   9
ATOM      9  CA  GLU     4      -8.649  -5.635   3.219  1.00  0.00     0.187 C 
BRANCH   9  10
ATOM     10  CB  GLU     4      -7.718  -6.364   4.200  1.00  0.00     0.045 C 
BRANCH  10  11
ATOM     11  CG  GLU     4      -7.129  -7.707   3.713  1.00  0.00     0.100 C 
BRANCH  11  12
ATOM     12  CD  GLU     4      -6.931  -8.744   4.818  1.00  0.00     0.185 C 
ATOM     13  OE1 GLU     4      -6.261  -8.396   5.825  1.00  0.00    -0.647 OA
ATOM     14  OE2 GLU     4      -7.011  -9.943   4.482  1.00  0.00    -0.647 OA
ENDBRANCH  11  12
ENDBRANCH  10  11
ENDBRANCH   9  10
BRANCH   9  15
ATOM     15  N   GLU     4      -8.392  -4.185   3.316  1.00  0.00    -0.229 NA
ATOM     16  C   PRO     3      -8.551  -3.259   2.377  1.00  0.00     0.272 C 
ATOM     17  O   PRO     3      -9.286  -3.407   1.399  1.00  0.00    -0.269 OA
BRANCH  16  18
ATOM     18  CA  PRO     3      -8.192  -1.833   2.798  1.00  0.00     0.165 C 
ATOM     19  N   PRO     3      -8.826  -1.377   4.053  1.00  0.00    -0.312 N 
ATOM     20  CD  PRO     3      -7.848  -0.596   4.852  1.00  0.00     0.105 C 
ATOM     21  C   ASP     2     -10.135  -1.525   4.330  1.00  0.00     0.257 C 
ATOM     22  CG  PRO     3      -6.647  -0.417   3.911  1.00  0.00     0.027 C 
ATOM     23  CB  PRO     3      -6.692  -1.657   3.024  1.00  0.00     0.034 C 
ATOM     24  O   ASP     2     -10.928  -1.868   3.441  1.00  0.00    -0.270 OA
BRANCH  21  25
ATOM     25  CA  ASP     2     -10.707  -0.932   5.638  1.00  0.00     0.195 C 
BRANCH  25  26
ATOM     26  CB  ASP     2     -10.508   0.591   5.849  1.00  0.00     0.132 C 
BRANCH  26  27
ATOM     27  CG  ASP     2     -11.751   1.367   5.377  1.00  0.00     0.188 C 
ATOM     28  OD2 ASP     2     -11.763   1.683   4.160  1.00  0.00    -0.647 OA
ATOM     29  OD1 ASP     2     -12.320   2.094   6.229  1.00  0.00    -0.647 OA
ENDBRANCH  26  27
ENDBRANCH  25  26
BRANCH  25  30
ATOM     30  N   ASP     2     -10.065  -1.506   6.833  1.00  0.00    -0.228 NA
ATOM     31  C   TYR     1     -10.515  -2.498   7.566  1.00  0.00     0.289 C 
ATOM     32  O   TYR     1     -11.479  -3.236   7.337  1.00  0.00    -0.268 OA
BRANCH  31  33
ATOM     33  CA  TYR     1      -9.703  -2.677   8.845  1.00  0.00     0.385 C 
ATOM     34  N   TYR     1      -9.033  -3.986   8.774  1.00  0.00     0.626 N 
BRANCH  33  35
ATOM     35  CB  TYR     1      -8.712  -1.518   8.921  1.00  0.00     0.075 C 
BRANCH  35  36
ATOM     36  CG  TYR     1      -7.779  -1.604  10.139  1.00  0.00    -0.019 A 
ATOM     37  CD2 TYR     1      -8.258  -1.950  11.393  1.00  0.00    -0.002 A 
ATOM     38  CE2 TYR     1      -7.377  -2.153  12.445  1.00  0.00     0.027 A 
ATOM     39  CZ  TYR     1      -6.009  -1.999  12.224  1.00  0.00     0.131 A 
ATOM     40  CE1 TYR     1      -5.541  -1.614  10.981  1.00  0.00     0.027 A 
ATOM     41  OH  TYR     1      -5.123  -2.370  13.171  1.00  0.00    -0.190 OA
ATOM     42  CD1 TYR     1      -6.422  -1.411   9.930  1.00  0.00    -0.002 A 
ENDBRANCH  35  36
ENDBRANCH  33  35
ENDBRANCH  31  33
ENDBRANCH  25  30
ENDBRANCH  21  25
ENDBRANCH  16  18
ENDBRANCH   9  15
ENDBRANCH   7   9
ENDBRANCH   5   6
BRANCH   5  43
ATOM     43  CB  TYR     5     -12.300  -8.725   2.395  1.00  0.00     0.060 C 
BRANCH  43  44
ATOM     44  CG  TYR     5     -13.814  -8.981   2.473  1.00  0.00    -0.020 A 
ATOM     45  CD2 TYR     5     -14.309 -10.275   2.573  1.00  0.00    -0.002 A 
ATOM     46  CE2 TYR     5     -15.681 -10.495   2.650  1.00  0.00     0.027 A 
ATOM     47  CZ  TYR     5     -16.558  -9.422   2.626  1.00  0.00     0.131 A 
ATOM     48  CE1 TYR     5     -16.070  -8.123   2.544  1.00  0.00     0.027 A 
ATOM     49  OH  TYR     5     -17.890  -9.634   2.560  1.00  0.00    -0.190 OA
ATOM     50  CD1 TYR     5     -14.695  -7.905   2.458  1.00  0.00    -0.002 A 
ENDBRANCH  43  44
ENDBRANCH   5  43
ENDBRANCH   3   5
ENDBRANCH   1   2
BRANCH   1  51
ATOM     51  CB  ARG     6     -12.646 -11.166   6.600  1.00  0.00     0.036 C 
BRANCH  51  52
ATOM     52  CG  ARG     6     -12.908 -10.740   8.047  1.00  0.00     0.029 C 
BRANCH  52  53
ATOM     53  CD  ARG     6     -14.401 -10.526   8.276  1.00  0.00     0.145 C 
BRANCH  53  54
ATOM     54  NE  ARG     6     -14.732  -9.091   8.294  1.00  0.00    -0.083 NA
ATOM     55  CZ  ARG     6     -15.274  -8.402   7.272  1.00  0.00     0.782 C 
ATOM     56  NH2 ARG     6     -15.457  -7.083   7.366  1.00  0.00     0.063 N 
ATOM     57  NH1 ARG     6     -15.554  -9.011   6.126  1.00  0.00     0.063 N 
ENDBRANCH  53  54
ENDBRANCH  52  53
ENDBRANCH  51  52
ENDBRANCH   1  51
BRANCH   1  58
ATOM     58  C   ARG     6     -10.471 -12.010   5.842  1.00  0.00     0.274 C 
ATOM     59  N   ASN     7      -9.194 -11.957   6.213  1.00  0.00    -0.228 NA
ATOM     60  O   ARG     6     -11.021 -12.990   5.339  1.00  0.00    -0.268 OA
BRANCH  59  61
ATOM     61  CA  ASN     7      -8.282 -13.119   6.161  1.00  0.00     0.196 C 
BRANCH  61  62
ATOM     62  C   ASN     7      -7.129 -12.979   7.174  1.00  0.00     0.275 C 
ATOM     63  N   PHE     8      -6.441 -14.093   7.469  1.00  0.00    -0.228 NA
ATOM     64  O   ASN     7      -6.669 -11.866   7.340  1.00  0.00    -0.268 OA
BRANCH  63  65
ATOM     65  CA  PHE     8      -5.249 -14.145   8.350  1.00  0.00     0.191 C 
BRANCH  65  66
ATOM     66  CB  PHE     8      -5.496 -15.208   9.430  1.00  0.00     0.060 C 
BRANCH  66  67
ATOM     67  CG  PHE     8      -5.245 -14.722  10.870  1.00  0.00    -0.020 A 
ATOM     68  CD1 PHE     8      -5.182 -15.641  11.909  1.00  0.00    -0.004 A 
ATOM     69  CE1 PHE     8      -5.056 -15.193  13.224  1.00  0.00    -0.000 A 
ATOM     70  CZ  PHE     8      -4.980 -13.834  13.484  1.00  0.00    -0.000 A 
ATOM     71  CE2 PHE     8      -5.029 -12.913  12.443  1.00  0.00    -0.000 A 
ATOM     72  CD2 PHE     8      -5.154 -13.361  11.127  1.00  0.00    -0.004 A 
ENDBRANCH  66  67
ENDBRANCH  65  66
BRANCH  65  73
ATOM     73  C   PHE     8      -3.907 -14.375   7.619  1.00  0.00     0.275 C 
ATOM     74  N   TRP     9      -3.002 -15.117   8.259  1.00  0.00    -0.228 NA
ATOM     75  O   PHE     8      -3.602 -13.704   6.629  1.00  0.00    -0.268 OA
BRANCH  74  76
ATOM     76  CA  TRP     9      -1.722 -15.519   7.625  1.00  0.00     0.191 C 
BRANCH  76  77
ATOM     77  CB  TRP     9      -0.559 -15.043   8.510  1.00  0.00     0.062 C 
BRANCH  77  78
ATOM     78  CG  TRP     9      -0.970 -13.973   9.521  1.00  0.00     0.001 A 
ATOM     79  CD1 TRP     9      -0.900 -12.658   9.337  1.00  0.00     0.095 A 
ATOM     80  NE1 TRP     9      -1.051 -12.034  10.499  1.00  0.00    -0.244 NA
ATOM     81  CE2 TRP     9      -1.243 -12.927  11.459  1.00  0.00     0.081 A 
ATOM     82  CD2 TRP     9      -1.185 -14.184  10.879  1.00  0.00     0.015 A 
ATOM     83  CZ2 TRP     9      -1.364 -12.816  12.844  1.00  0.00     0.019 A 
ATOM     84  CE3 TRP     9      -1.232 -15.330  11.659  1.00  0.00     0.001 A 
ATOM     85  CZ3 TRP     9      -1.339 -15.221  13.042  1.00  0.00     0.000 A 
ATOM     86  CH2 TRP     9      -1.424 -13.959  13.627  1.00  0.00     0.002 A 
ENDBRANCH  77  78
ENDBRANCH  76  77
BRANCH  76  87
ATOM     87  C   TRP     9      -1.612 -17.026   7.301  1.00  0.00     0.275 C 
ATOM     88  O   TRP     9      -2.610 -17.742   7.287  1.00  0.00    -0.268 OA
ATOM     89  N   GLY    10      -0.406 -17.465   6.947  1.00  0.00    -0.226 NA
BRANCH  89  90
ATOM     90  CA  GLY    10      -0.106 -18.870   6.557  1.00  0.00     0.218 C 
BRANCH  90  91
ATOM     91  C   GLY    10       0.804 -19.663   7.509  1.00  0.00     0.277 C 
ATOM     92  N   CYS    11       1.960 -20.064   6.981  1.00  0.00    -0.228 NA
ATOM     93  O   GLY    10       0.392 -20.031   8.603  1.00  0.00    -0.268 OA
BRANCH  92  94
ATOM     94  CA  CYS    11       3.030 -20.819   7.670  1.00  0.00     0.198 C 
BRANCH  94  95
ATOM     95  C   CYS    11       4.385 -20.213   7.257  1.00  0.00     0.275 C 
ATOM     96  O   CYS    11       5.406 -20.603   7.813  1.00  0.00    -0.268 OA
ATOM     97  N   GLY    12       4.332 -19.158   6.458  1.00  0.00    -0.225 NA
BRANCH  97  98
ATOM     98  CA  GLY    12       5.531 -18.450   5.982  1.00  0.00     0.226 C 
BRANCH  98  99
ATOM     99  C   GLY    12       5.686 -17.158   6.818  1.00  0.00     0.211 C 
ATOM    100  O1  GLY    12       6.860 -16.778   7.055  1.00  0.00    -0.646 OA
ATOM    101  O2  GLY    12       4.648 -16.565   7.167  1.00  0.00    -0.646 OA
ENDBRANCH  98  99
ENDBRANCH  97  98
ENDBRANCH  94  95
BRANCH  94 102
ATOM    102  CB  CYS    11       3.056 -22.263   7.175  1.00  0.00     0.103 C 
ATOM    103  SG  CYS    11       2.619 -22.522   5.413  1.00  0.00    -0.080 SA
ENDBRANCH  94 102
ENDBRANCH  92  94
ENDBRANCH  90  91
ENDBRANCH  89  90
ENDBRANCH  76  87
ENDBRANCH  74  76
ENDBRANCH  65  73
ENDBRANCH  63  65
ENDBRANCH  61  62
BRANCH  61 104
ATOM    104  CB  ASN     7      -7.740 -13.338   4.744  1.00  0.00     0.126 C 
BRANCH 104 105
ATOM    105  CG  ASN     7      -7.965 -14.752   4.176  1.00  0.00     0.276 C 
ATOM    106  ND2 ASN     7      -7.194 -15.099   3.171  1.00  0.00    -0.107 N 
ATOM    107  OD1 ASN     7      -8.889 -15.493   4.483  1.00  0.00    -0.269 OA
ENDBRANCH 104 105
ENDBRANCH  61 104
ENDBRANCH  59  61
ENDBRANCH   1  58
TORSDOF 42
ENDMDL
MODEL 6
REMARK VINA RESULT:      -5.6      3.915      7.885
REMARK WARNING: 32 MAX_TORS EXCEEDED!!!
REMARK  42 active torsions:
REMARK  status: ('A' for Active; 'I' for Inactive)
REMARK    1  A    between atoms: CA_2  and  CB_3 
REMARK    2  A    between atoms: CA_2  and  C_11 
REMARK    3  A    between atoms: CB_3  and  CG_4 
REMARK       I    between atoms: C_11  and  N_13 
REMARK    4  A    between atoms: N_13  and  CA_14 
REMARK    5  A    between atoms: CA_14  and  CB_15 
REMARK    6  A    between atoms: CA_14  and  C_19 
REMARK    7  A    between atoms: CB_15  and  CG_16 
REMARK       I    between atoms: C_19  and  N_21 
REMARK    8  A    between atoms: CA_22  and  C_26 
REMARK       I    between atoms: C_26  and  N_28 
REMARK    9  A    between atoms: N_28  and  CA_29 
REMARK   10  A    between atoms: CA_29  and  C_35 
REMARK   11  A    between atoms: CA_29  and  CB_30 
REMARK   12  A    between atoms: CB_30  and  CG_31 
REMARK   13  A    between atoms: CG_31  and  CD_32 
REMARK       I    between atoms: C_35  and  N_37 
REMARK   14  A    between atoms: N_37  and  CA_38 
REMARK   15  A    between atoms: CA_38  and  CB_39 
REMARK   16  A    between atoms: CA_38  and  C_47 
REMARK   17  A    between atoms: CB_39  and  CG_40 
REMARK       I    between atoms: C_47  and  N_49 
REMARK   18  A    between atoms: N_49  and  CA_50 
REMARK   19  A    between atoms: CA_50  and  CB_51 
REMARK   20  A    between atoms: CA_50  and  C_58 
REMARK   21  A    between atoms: CB_51  and  CG_52 
REMARK   22  A    between atoms: CG_52  and  CD_53 
REMARK   23  A    between atoms: CD_53  and  NE_54 
REMARK       I    between atoms: C_58  and  N_60 
REMARK   24  A    between atoms: N_60  and  CA_61 
REMARK   25  A    between atoms: CA_61  and  C_66 
REMARK   26  A    between atoms: CA_61  and  CB_62 
REMARK   27  A    between atoms: CB_62  and  CG_63 
REMARK       I    between atoms: C_66  and  N_68 
REMARK   28  A    between atoms: N_68  and  CA_69 
REMARK   29  A    between atoms: CA_69  and  CB_70 
REMARK   30  A    between atoms: CA_69  and  C_77 
REMARK   31  A    between atoms: CB_70  and  CG_71 
REMARK       I    between atoms: C_77  and  N_79 
REMARK   32  A    between atoms: N_79  and  CA_80 
REMARK   33  A    between atoms: CA_80  and  CB_81 
REMARK   34  A    between atoms: CA_80  and  C_91 
REMARK   35  A    between atoms: CB_81  and  CG_82 
REMARK       I    between atoms: C_91  and  N_93 
REMARK   36  A    between atoms: N_93  and  CA_94 
REMARK   37  A    between atoms: CA_94  and  C_95 
REMARK       I    between atoms: C_95  and  N_97 
REMARK   38  A    between atoms: N_97  and  CA_98 
REMARK   39  A    between atoms: CA_98  and  C_101 
REMARK   40  A    between atoms: CA_98  and  CB_99 
REMARK       I    between atoms: C_101  and  N_103 
REMARK   41  A    between atoms: N_103  and  CA_104 
REMARK   42  A    between atoms: CA_104  and  C_105 
ROOT
ATOM      1  CA  ARG     6      -8.587   0.886  11.082  1.00  0.00     0.186 C 
ENDROOT
BRANCH   1   2
ATOM      2  N   ARG     6      -8.842   1.934  10.066  1.00  0.00    -0.229 NA
ATOM      3  C   TYR     5      -9.542   3.043  10.340  1.00  0.00     0.275 C 
ATOM      4  O   TYR     5      -9.994   3.277  11.461  1.00  0.00    -0.268 OA
BRANCH   3   5
ATOM      5  CA  TYR     5      -9.670   4.086   9.217  1.00  0.00     0.191 C 
BRANCH   5   6
ATOM      6  N   TYR     5      -9.127   5.420   9.582  1.00  0.00    -0.228 NA
ATOM      7  C   GLU     4      -7.812   5.671   9.692  1.00  0.00     0.274 C 
ATOM      8  O   GLU     4      -6.955   4.860   9.365  1.00  0.00    -0.268 OA
BRANCH   7   9
ATOM      9  CA  GLU     4      -7.422   7.143   9.939  1.00  0.00     0.187 C 
BRANCH   9  10
ATOM     10  CB  GLU     4      -8.476   8.073   9.317  1.00  0.00     0.045 C 
BRANCH  10  11
ATOM     11  CG  GLU     4      -8.340   8.343   7.802  1.00  0.00     0.100 C 
BRANCH  11  12
ATOM     12  CD  GLU     4      -8.171   9.818   7.439  1.00  0.00     0.185 C 
ATOM     13  OE1 GLU     4      -7.031  10.326   7.602  1.00  0.00    -0.647 OA
ATOM     14  OE2 GLU     4      -9.199  10.524   7.467  1.00  0.00    -0.647 OA
ENDBRANCH  11  12
ENDBRANCH  10  11
ENDBRANCH   9  10
BRANCH   9  15
ATOM     15  N   GLU     4      -6.099   7.496   9.389  1.00  0.00    -0.229 NA
ATOM     16  C   PRO     3      -4.960   7.679  10.047  1.00  0.00     0.272 C 
ATOM     17  O   PRO     3      -4.747   7.222  11.171  1.00  0.00    -0.269 OA
BRANCH  16  18
ATOM     18  CA  PRO     3      -3.755   8.042   9.177  1.00  0.00     0.165 C 
ATOM     19  N   PRO     3      -3.644   7.274   7.918  1.00  0.00    -0.312 N 
ATOM     20  CD  PRO     3      -3.213   8.176   6.820  1.00  0.00     0.105 C 
ATOM     21  C   ASP     2      -3.765   5.936   7.841  1.00  0.00     0.257 C 
ATOM     22  CG  PRO     3      -2.856   9.492   7.528  1.00  0.00     0.027 C 
ATOM     23  CB  PRO     3      -3.771   9.507   8.749  1.00  0.00     0.034 C 
ATOM     24  O   ASP     2      -3.767   5.247   8.872  1.00  0.00    -0.270 OA
BRANCH  21  25
ATOM     25  CA  ASP     2      -3.544   5.230   6.484  1.00  0.00     0.195 C 
BRANCH  25  26
ATOM     26  CB  ASP     2      -4.108   5.950   5.232  1.00  0.00     0.132 C 
BRANCH  26  27
ATOM     27  CG  ASP     2      -5.638   5.788   5.162  1.00  0.00     0.188 C 
ATOM     28  OD2 ASP     2      -6.071   5.162   4.161  1.00  0.00    -0.647 OA
ATOM     29  OD1 ASP     2      -6.326   6.695   5.692  1.00  0.00    -0.647 OA
ENDBRANCH  26  27
ENDBRANCH  25  26
BRANCH  25  30
ATOM     30  N   ASP     2      -4.214   3.919   6.426  1.00  0.00    -0.228 NA
ATOM     31  C   TYR     1      -3.634   2.745   6.344  1.00  0.00     0.289 C 
ATOM     32  O   TYR     1      -2.430   2.482   6.433  1.00  0.00    -0.268 OA
BRANCH  31  33
ATOM     33  CA  TYR     1      -4.640   1.628   6.084  1.00  0.00     0.385 C 
ATOM     34  N   TYR     1      -4.188   0.434   6.817  1.00  0.00     0.626 N 
BRANCH  33  35
ATOM     35  CB  TYR     1      -6.003   2.124   6.561  1.00  0.00     0.075 C 
BRANCH  35  36
ATOM     36  CG  TYR     1      -7.172   1.534   5.757  1.00  0.00    -0.019 A 
ATOM     37  CD2 TYR     1      -7.543   2.061   4.529  1.00  0.00    -0.002 A 
ATOM     38  CE2 TYR     1      -8.510   1.428   3.762  1.00  0.00     0.027 A 
ATOM     39  CZ  TYR     1      -9.106   0.264   4.245  1.00  0.00     0.131 A 
ATOM     40  CE1 TYR     1      -8.761  -0.233   5.489  1.00  0.00     0.027 A 
ATOM     41  OH  TYR     1      -9.906  -0.470   3.445  1.00  0.00    -0.190 OA
ATOM     42  CD1 TYR     1      -7.794   0.400   6.256  1.00  0.00    -0.002 A 
ENDBRANCH  35  36
ENDBRANCH  33  35
ENDBRANCH  31  33
ENDBRANCH  25  30
ENDBRANCH  21  25
ENDBRANCH  16  18
ENDBRANCH   9  15
ENDBRANCH   7   9
ENDBRANCH   5   6
BRANCH   5  43
ATOM     43  CB  TYR     5      -9.010   3.583   7.923  1.00  0.00     0.060 C 
BRANCH  43  44
ATOM     44  CG  TYR     5      -9.823   3.953   6.671  1.00  0.00    -0.020 A 
ATOM     45  CD2 TYR     5      -9.542   5.115   5.964  1.00  0.00    -0.002 A 
ATOM     46  CE2 TYR     5     -10.279   5.438   4.828  1.00  0.00     0.027 A 
ATOM     47  CZ  TYR     5     -11.295   4.599   4.399  1.00  0.00     0.131 A 
ATOM     48  CE1 TYR     5     -11.570   3.425   5.091  1.00  0.00     0.027 A 
ATOM     49  OH  TYR     5     -12.103   4.973   3.384  1.00  0.00    -0.190 OA
ATOM     50  CD1 TYR     5     -10.836   3.108   6.234  1.00  0.00    -0.002 A 
ENDBRANCH  43  44
ENDBRANCH   5  43
ENDBRANCH   3   5
ENDBRANCH   1   2
BRANCH   1  51
ATOM     51  CB  ARG     6      -8.421  -0.503  10.472  1.00  0.00     0.036 C 
BRANCH  51  52
ATOM     52  CG  ARG     6      -8.460  -1.635  11.502  1.00  0.00     0.029 C 
BRANCH  52  53
ATOM     53  CD  ARG     6      -9.903  -1.993  11.844  1.00  0.00     0.145 C 
BRANCH  53  54
ATOM     54  NE  ARG     6      -9.962  -3.198  12.688  1.00  0.00    -0.083 NA
ATOM     55  CZ  ARG     6     -10.296  -4.432  12.266  1.00  0.00     0.782 C 
ATOM     56  NH2 ARG     6     -10.400  -5.440  13.134  1.00  0.00     0.063 N 
ATOM     57  NH1 ARG     6     -10.612  -4.642  10.993  1.00  0.00     0.063 N 
ENDBRANCH  53  54
ENDBRANCH  52  53
ENDBRANCH  51  52
ENDBRANCH   1  51
BRANCH   1  58
ATOM     58  C   ARG     6      -7.319   1.159  11.901  1.00  0.00     0.274 C 
ATOM     59  N   ASN     7      -6.168   0.985  11.258  1.00  0.00    -0.228 NA
ATOM     60  O   ARG     6      -7.427   1.510  13.077  1.00  0.00    -0.268 OA
BRANCH  59  61
ATOM     61  CA  ASN     7      -4.850   1.293  11.851  1.00  0.00     0.196 C 
BRANCH  61  62
ATOM     62  C   ASN     7      -3.893   1.915  10.814  1.00  0.00     0.275 C 
ATOM     63  N   PHE     8      -2.578   1.761  11.032  1.00  0.00    -0.228 NA
ATOM     64  O   ASN     7      -4.348   2.149   9.711  1.00  0.00    -0.268 OA
BRANCH  63  65
ATOM     65  CA  PHE     8      -1.508   2.211  10.109  1.00  0.00     0.191 C 
BRANCH  65  66
ATOM     66  CB  PHE     8      -0.772   3.388  10.764  1.00  0.00     0.060 C 
BRANCH  66  67
ATOM     67  CG  PHE     8      -0.443   4.546   9.803  1.00  0.00    -0.020 A 
ATOM     68  CD1 PHE     8      -0.484   5.857  10.259  1.00  0.00    -0.004 A 
ATOM     69  CE1 PHE     8      -0.287   6.909   9.365  1.00  0.00    -0.000 A 
ATOM     70  CZ  PHE     8      -0.036   6.639   8.029  1.00  0.00    -0.000 A 
ATOM     71  CE2 PHE     8       0.018   5.326   7.573  1.00  0.00    -0.000 A 
ATOM     72  CD2 PHE     8      -0.179   4.274   8.467  1.00  0.00    -0.004 A 
ENDBRANCH  66  67
ENDBRANCH  65  66
BRANCH  65  73
ATOM     73  C   PHE     8      -0.527   1.104   9.659  1.00  0.00     0.275 C 
ATOM     74  N   TRP     9       0.479   0.828  10.491  1.00  0.00    -0.228 NA
ATOM     75  O   PHE     8      -0.531   0.689   8.497  1.00  0.00    -0.268 OA
BRANCH  74  76
ATOM     76  CA  TRP     9       1.420  -0.292  10.243  1.00  0.00     0.191 C 
BRANCH  76  77
ATOM     77  CB  TRP     9       2.856   0.208  10.467  1.00  0.00     0.062 C 
BRANCH  77  78
ATOM     78  CG  TRP     9       3.331   1.178   9.385  1.00  0.00     0.001 A 
ATOM     79  CD1 TRP     9       4.066   0.863   8.323  1.00  0.00     0.095 A 
ATOM     80  NE1 TRP     9       4.540   1.969   7.763  1.00  0.00    -0.244 NA
ATOM     81  CE2 TRP     9       4.109   3.026   8.435  1.00  0.00     0.081 A 
ATOM     82  CD2 TRP     9       3.341   2.565   9.493  1.00  0.00     0.015 A 
ATOM     83  CZ2 TRP     9       4.377   4.390   8.326  1.00  0.00     0.019 A 
ATOM     84  CE3 TRP     9       2.851   3.441  10.449  1.00  0.00     0.001 A 
ATOM     85  CZ3 TRP     9       3.128   4.800  10.350  1.00  0.00     0.000 A 
ATOM     86  CH2 TRP     9       3.877   5.271   9.274  1.00  0.00     0.002 A 
ENDBRANCH  77  78
ENDBRANCH  76  77
BRANCH  76  87
ATOM     87  C   TRP     9       1.127  -1.569  11.064  1.00  0.00     0.275 C 
ATOM     88  O   TRP     9       0.031  -2.118  11.006  1.00  0.00    -0.268 OA
ATOM     89  N   GLY    10       2.153  -2.080  11.743  1.00  0.00    -0.226 NA
BRANCH  89  90
ATOM     90  CA  GLY    10       2.083  -3.325  12.556  1.00  0.00     0.218 C 
BRANCH  90  91
ATOM     91  C   GLY    10       2.894  -4.524  12.038  1.00  0.00     0.277 C 
ATOM     92  N   CYS    11       3.715  -4.253  11.024  1.00  0.00    -0.228 NA
ATOM     93  O   GLY    10       2.650  -5.659  12.432  1.00  0.00    -0.268 OA
BRANCH  92  94
ATOM     94  CA  CYS    11       4.626  -5.205  10.348  1.00  0.00     0.198 C 
BRANCH  94  95
ATOM     95  C   CYS    11       6.075  -4.781  10.656  1.00  0.00     0.275 C 
ATOM     96  O   CYS    11       6.288  -4.025  11.598  1.00  0.00    -0.268 OA
ATOM     97  N   GLY    12       6.983  -5.110   9.749  1.00  0.00    -0.225 NA
BRANCH  97  98
ATOM     98  CA  GLY    12       8.408  -4.768   9.880  1.00  0.00     0.226 C 
BRANCH  98  99
ATOM     99  C   GLY    12       8.686  -3.532   8.993  1.00  0.00     0.211 C 
ATOM    100  O1  GLY    12       7.748  -3.150   8.248  1.00  0.00    -0.646 OA
ATOM    101  O2  GLY    12       9.796  -2.979   9.100  1.00  0.00    -0.646 OA
ENDBRANCH  98  99
ENDBRANCH  97  98
ENDBRANCH  94  95
BRANCH  94 102
ATOM    102  CB  CYS    11       4.476  -5.090   8.833  1.00  0.00     0.103 C 
ATOM    103  SG  CYS    11       2.784  -4.749   8.212  1.00  0.00    -0.080 SA
ENDBRANCH  94 102
ENDBRANCH  92  94
ENDBRANCH  90  91
ENDBRANCH  89  90
ENDBRANCH  76  87
ENDBRANCH  74  76
ENDBRANCH  65  73
ENDBRANCH  63  65
ENDBRANCH  61  62
BRANCH  61 104
ATOM    104  CB  ASN     7      -4.224   0.049  12.493  1.00  0.00     0.126 C 
BRANCH 104 105
ATOM    105  CG  ASN     7      -4.002  -1.134  11.531  1.00  0.00     0.276 C 
ATOM    106  ND2 ASN     7      -4.769  -1.162  10.466  1.00  0.00    -0.107 N 
ATOM    107  OD1 ASN     7      -3.292  -2.104  11.763  1.00  0.00    -0.269 OA
ENDBRANCH 104 105
ENDBRANCH  61 104
ENDBRANCH  59  61
ENDBRANCH   1  58
TORSDOF 42
ENDMDL
MODEL 7
REMARK VINA RESULT:      -5.5     19.020     27.887
REMARK WARNING: 32 MAX_TORS EXCEEDED!!!
REMARK  42 active torsions:
REMARK  status: ('A' for Active; 'I' for Inactive)
REMARK    1  A    between atoms: CA_2  and  CB_3 
REMARK    2  A    between atoms: CA_2  and  C_11 
REMARK    3  A    between atoms: CB_3  and  CG_4 
REMARK       I    between atoms: C_11  and  N_13 
REMARK    4  A    between atoms: N_13  and  CA_14 
REMARK    5  A    between atoms: CA_14  and  CB_15 
REMARK    6  A    between atoms: CA_14  and  C_19 
REMARK    7  A    between atoms: CB_15  and  CG_16 
REMARK       I    between atoms: C_19  and  N_21 
REMARK    8  A    between atoms: CA_22  and  C_26 
REMARK       I    between atoms: C_26  and  N_28 
REMARK    9  A    between atoms: N_28  and  CA_29 
REMARK   10  A    between atoms: CA_29  and  C_35 
REMARK   11  A    between atoms: CA_29  and  CB_30 
REMARK   12  A    between atoms: CB_30  and  CG_31 
REMARK   13  A    between atoms: CG_31  and  CD_32 
REMARK       I    between atoms: C_35  and  N_37 
REMARK   14  A    between atoms: N_37  and  CA_38 
REMARK   15  A    between atoms: CA_38  and  CB_39 
REMARK   16  A    between atoms: CA_38  and  C_47 
REMARK   17  A    between atoms: CB_39  and  CG_40 
REMARK       I    between atoms: C_47  and  N_49 
REMARK   18  A    between atoms: N_49  and  CA_50 
REMARK   19  A    between atoms: CA_50  and  CB_51 
REMARK   20  A    between atoms: CA_50  and  C_58 
REMARK   21  A    between atoms: CB_51  and  CG_52 
REMARK   22  A    between atoms: CG_52  and  CD_53 
REMARK   23  A    between atoms: CD_53  and  NE_54 
REMARK       I    between atoms: C_58  and  N_60 
REMARK   24  A    between atoms: N_60  and  CA_61 
REMARK   25  A    between atoms: CA_61  and  C_66 
REMARK   26  A    between atoms: CA_61  and  CB_62 
REMARK   27  A    between atoms: CB_62  and  CG_63 
REMARK       I    between atoms: C_66  and  N_68 
REMARK   28  A    between atoms: N_68  and  CA_69 
REMARK   29  A    between atoms: CA_69  and  CB_70 
REMARK   30  A    between atoms: CA_69  and  C_77 
REMARK   31  A    between atoms: CB_70  and  CG_71 
REMARK       I    between atoms: C_77  and  N_79 
REMARK   32  A    between atoms: N_79  and  CA_80 
REMARK   33  A    between atoms: CA_80  and  CB_81 
REMARK   34  A    between atoms: CA_80  and  C_91 
REMARK   35  A    between atoms: CB_81  and  CG_82 
REMARK       I    between atoms: C_91  and  N_93 
REMARK   36  A    between atoms: N_93  and  CA_94 
REMARK   37  A    between atoms: CA_94  and  C_95 
REMARK       I    between atoms: C_95  and  N_97 
REMARK   38  A    between atoms: N_97  and  CA_98 
REMARK   39  A    between atoms: CA_98  and  C_101 
REMARK   40  A    between atoms: CA_98  and  CB_99 
REMARK       I    between atoms: C_101  and  N_103 
REMARK   41  A    between atoms: N_103  and  CA_104 
REMARK   42  A    between atoms: CA_104  and  C_105 
ROOT
ATOM      1  CA  ARG     6      -2.805 -23.587   2.972  1.00  0.00     0.186 C 
ENDROOT
BRANCH   1   2
ATOM      2  N   ARG     6      -1.532 -23.393   3.706  1.00  0.00    -0.229 NA
ATOM      3  C   TYR     5      -1.488 -23.227   5.034  1.00  0.00     0.275 C 
ATOM      4  O   TYR     5      -2.499 -23.254   5.735  1.00  0.00    -0.268 OA
BRANCH   3   5
ATOM      5  CA  TYR     5      -0.097 -23.110   5.679  1.00  0.00     0.191 C 
BRANCH   5   6
ATOM      6  N   TYR     5       0.097 -21.852   6.445  1.00  0.00    -0.228 NA
ATOM      7  C   GLU     4      -0.015 -20.632   5.893  1.00  0.00     0.274 C 
ATOM      8  O   GLU     4      -0.424 -20.459   4.752  1.00  0.00    -0.268 OA
BRANCH   7   9
ATOM      9  CA  GLU     4       0.080 -19.438   6.865  1.00  0.00     0.187 C 
BRANCH   9  10
ATOM     10  CB  GLU     4      -0.887 -18.327   6.423  1.00  0.00     0.045 C 
BRANCH  10  11
ATOM     11  CG  GLU     4      -1.390 -17.378   7.532  1.00  0.00     0.100 C 
BRANCH  11  12
ATOM     12  CD  GLU     4      -0.987 -15.917   7.340  1.00  0.00     0.185 C 
ATOM     13  OE1 GLU     4      -0.500 -15.316   8.334  1.00  0.00    -0.647 OA
ATOM     14  OE2 GLU     4      -1.567 -15.289   6.431  1.00  0.00    -0.647 OA
ENDBRANCH  11  12
ENDBRANCH  10  11
ENDBRANCH   9  10
BRANCH   9  15
ATOM     15  N   GLU     4       1.438 -18.871   6.959  1.00  0.00    -0.229 NA
ATOM     16  C   PRO     3       1.965 -18.165   7.953  1.00  0.00     0.272 C 
ATOM     17  O   PRO     3       1.529 -18.190   9.105  1.00  0.00    -0.269 OA
BRANCH  16  18
ATOM     18  CA  PRO     3       3.413 -17.717   7.740  1.00  0.00     0.165 C 
ATOM     19  N   PRO     3       4.381 -18.817   7.543  1.00  0.00    -0.312 N 
ATOM     20  CD  PRO     3       5.354 -18.441   6.486  1.00  0.00     0.105 C 
ATOM     21  C   ASP     2       4.445 -19.911   8.324  1.00  0.00     0.257 C 
ATOM     22  CG  PRO     3       5.056 -16.960   6.204  1.00  0.00     0.027 C 
ATOM     23  CB  PRO     3       3.567 -16.825   6.511  1.00  0.00     0.034 C 
ATOM     24  O   ASP     2       3.821 -19.953   9.395  1.00  0.00    -0.270 OA
BRANCH  21  25
ATOM     25  CA  ASP     2       5.555 -20.957   8.077  1.00  0.00     0.195 C 
BRANCH  25  26
ATOM     26  CB  ASP     2       5.294 -22.382   8.629  1.00  0.00     0.132 C 
BRANCH  26  27
ATOM     27  CG  ASP     2       4.190 -23.081   7.813  1.00  0.00     0.188 C 
ATOM     28  OD2 ASP     2       3.137 -23.348   8.446  1.00  0.00    -0.647 OA
ATOM     29  OD1 ASP     2       4.567 -23.814   6.866  1.00  0.00    -0.647 OA
ENDBRANCH  26  27
ENDBRANCH  25  26
BRANCH  25  30
ATOM     30  N   ASP     2       6.820 -20.588   8.735  1.00  0.00    -0.228 NA
ATOM     31  C   TYR     1       7.992 -20.449   8.161  1.00  0.00     0.289 C 
ATOM     32  O   TYR     1       8.255 -20.463   6.954  1.00  0.00    -0.268 OA
BRANCH  31  33
ATOM     33  CA  TYR     1       9.112 -20.276   9.183  1.00  0.00     0.385 C 
ATOM     34  N   TYR     1      10.305 -19.794   8.467  1.00  0.00     0.626 N 
BRANCH  33  35
ATOM     35  CB  TYR     1       8.620 -19.283  10.233  1.00  0.00     0.075 C 
BRANCH  35  36
ATOM     36  CG  TYR     1       8.711 -17.821   9.767  1.00  0.00    -0.019 A 
ATOM     37  CD2 TYR     1       8.036 -17.379   8.640  1.00  0.00    -0.002 A 
ATOM     38  CE2 TYR     1       8.025 -16.030   8.318  1.00  0.00     0.027 A 
ATOM     39  CZ  TYR     1       8.705 -15.130   9.138  1.00  0.00     0.131 A 
ATOM     40  CE1 TYR     1       9.411 -15.584  10.238  1.00  0.00     0.027 A 
ATOM     41  OH  TYR     1       8.556 -13.802   8.957  1.00  0.00    -0.190 OA
ATOM     42  CD1 TYR     1       9.422 -16.932  10.559  1.00  0.00    -0.002 A 
ENDBRANCH  35  36
ENDBRANCH  33  35
ENDBRANCH  31  33
ENDBRANCH  25  30
ENDBRANCH  21  25
ENDBRANCH  16  18
ENDBRANCH   9  15
ENDBRANCH   7   9
ENDBRANCH   5   6
BRANCH   5  43
ATOM     43  CB  TYR     5       0.196 -24.325   6.577  1.00  0.00     0.060 C 
BRANCH  43  44
ATOM     44  CG  TYR     5       1.265 -25.251   5.975  1.00  0.00    -0.020 A 
ATOM     45  CD2 TYR     5       1.832 -24.967   4.739  1.00  0.00    -0.002 A 
ATOM     46  CE2 TYR     5       2.805 -25.807   4.205  1.00  0.00     0.027 A 
ATOM     47  CZ  TYR     5       3.210 -26.932   4.908  1.00  0.00     0.131 A 
ATOM     48  CE1 TYR     5       2.660 -27.214   6.153  1.00  0.00     0.027 A 
ATOM     49  OH  TYR     5       4.048 -27.825   4.337  1.00  0.00    -0.190 OA
ATOM     50  CD1 TYR     5       1.679 -26.375   6.682  1.00  0.00    -0.002 A 
ENDBRANCH  43  44
ENDBRANCH   5  43
ENDBRANCH   3   5
ENDBRANCH   1   2
BRANCH   1  51
ATOM     51  CB  ARG     6      -3.579 -24.814   3.442  1.00  0.00     0.036 C 
BRANCH  51  52
ATOM     52  CG  ARG     6      -3.956 -25.774   2.310  1.00  0.00     0.029 C 
BRANCH  52  53
ATOM     53  CD  ARG     6      -3.957 -27.214   2.814  1.00  0.00     0.145 C 
BRANCH  53  54
ATOM     54  NE  ARG     6      -2.887 -27.429   3.802  1.00  0.00    -0.083 NA
ATOM     55  CZ  ARG     6      -1.630 -27.821   3.519  1.00  0.00     0.782 C 
ATOM     56  NH2 ARG     6      -0.760 -28.068   4.501  1.00  0.00     0.063 N 
ATOM     57  NH1 ARG     6      -1.266 -28.051   2.263  1.00  0.00     0.063 N 
ENDBRANCH  53  54
ENDBRANCH  52  53
ENDBRANCH  51  52
ENDBRANCH   1  51
BRANCH   1  58
ATOM     58  C   ARG     6      -3.752 -22.389   3.113  1.00  0.00     0.274 C 
ATOM     59  N   ASN     7      -5.048 -22.683   3.169  1.00  0.00    -0.228 NA
ATOM     60  O   ARG     6      -3.281 -21.252   3.162  1.00  0.00    -0.268 OA
BRANCH  59  61
ATOM     61  CA  ASN     7      -6.103 -21.674   3.402  1.00  0.00     0.196 C 
BRANCH  61  62
ATOM     62  C   ASN     7      -6.193 -21.281   4.890  1.00  0.00     0.275 C 
ATOM     63  N   PHE     8      -6.413 -19.986   5.164  1.00  0.00    -0.228 NA
ATOM     64  O   ASN     7      -6.446 -22.167   5.682  1.00  0.00    -0.268 OA
BRANCH  63  65
ATOM     65  CA  PHE     8      -6.615 -19.430   6.523  1.00  0.00     0.191 C 
BRANCH  65  66
ATOM     66  CB  PHE     8      -5.239 -19.094   7.115  1.00  0.00     0.060 C 
BRANCH  66  67
ATOM     67  CG  PHE     8      -4.740 -20.095   8.174  1.00  0.00    -0.020 A 
ATOM     68  CD1 PHE     8      -5.655 -20.806   8.940  1.00  0.00    -0.004 A 
ATOM     69  CE1 PHE     8      -5.204 -21.635   9.967  1.00  0.00    -0.000 A 
ATOM     70  CZ  PHE     8      -3.845 -21.756  10.207  1.00  0.00    -0.000 A 
ATOM     71  CE2 PHE     8      -2.926 -21.055   9.432  1.00  0.00    -0.000 A 
ATOM     72  CD2 PHE     8      -3.377 -20.226   8.405  1.00  0.00    -0.004 A 
ENDBRANCH  66  67
ENDBRANCH  65  66
BRANCH  65  73
ATOM     73  C   PHE     8      -7.578 -18.223   6.598  1.00  0.00     0.275 C 
ATOM     74  N   TRP     9      -7.158 -17.171   7.303  1.00  0.00    -0.228 NA
ATOM     75  O   PHE     8      -8.755 -18.330   6.246  1.00  0.00    -0.268 OA
BRANCH  74  76
ATOM     76  CA  TRP     9      -7.925 -15.902   7.357  1.00  0.00     0.191 C 
BRANCH  76  77
ATOM     77  CB  TRP     9      -7.656 -15.216   8.706  1.00  0.00     0.062 C 
BRANCH  77  78
ATOM     78  CG  TRP     9      -6.229 -15.424   9.212  1.00  0.00     0.001 A 
ATOM     79  CD1 TRP     9      -5.128 -14.905   8.678  1.00  0.00     0.095 A 
ATOM     80  NE1 TRP     9      -4.059 -15.515   9.173  1.00  0.00    -0.244 NA
ATOM     81  CE2 TRP     9      -4.439 -16.428  10.054  1.00  0.00     0.081 A 
ATOM     82  CD2 TRP     9      -5.824 -16.414  10.101  1.00  0.00     0.015 A 
ATOM     83  CZ2 TRP     9      -3.738 -17.389  10.784  1.00  0.00     0.019 A 
ATOM     84  CE3 TRP     9      -6.519 -17.351  10.851  1.00  0.00     0.001 A 
ATOM     85  CZ3 TRP     9      -5.823 -18.318  11.569  1.00  0.00     0.000 A 
ATOM     86  CH2 TRP     9      -4.430 -18.319  11.546  1.00  0.00     0.002 A 
ENDBRANCH  77  78
ENDBRANCH  76  77
BRANCH  76  87
ATOM     87  C   TRP     9      -7.667 -14.946   6.170  1.00  0.00     0.275 C 
ATOM     88  O   TRP     9      -7.542 -15.379   5.028  1.00  0.00    -0.268 OA
ATOM     89  N   GLY    10      -7.690 -13.644   6.448  1.00  0.00    -0.226 NA
BRANCH  89  90
ATOM     90  CA  GLY    10      -7.506 -12.567   5.437  1.00  0.00     0.218 C 
BRANCH  90  91
ATOM     91  C   GLY    10      -6.347 -11.588   5.685  1.00  0.00     0.277 C 
ATOM     92  N   CYS    11      -5.783 -11.677   6.889  1.00  0.00    -0.228 NA
ATOM     93  O   GLY    10      -6.105 -10.692   4.884  1.00  0.00    -0.268 OA
BRANCH  92  94
ATOM     94  CA  CYS    11      -4.641 -10.879   7.388  1.00  0.00     0.198 C 
BRANCH  94  95
ATOM     95  C   CYS    11      -4.215 -11.455   8.753  1.00  0.00     0.275 C 
ATOM     96  O   CYS    11      -4.993 -11.385   9.698  1.00  0.00    -0.268 OA
ATOM     97  N   GLY    12      -2.945 -11.816   8.862  1.00  0.00    -0.225 NA
BRANCH  97  98
ATOM     98  CA  GLY    12      -2.372 -12.369  10.098  1.00  0.00     0.226 C 
BRANCH  98  99
ATOM     99  C   GLY    12      -0.923 -11.843  10.230  1.00  0.00     0.211 C 
ATOM    100  O1  GLY    12      -0.041 -12.689  10.523  1.00  0.00    -0.646 OA
ATOM    101  O2  GLY    12      -0.722 -10.636  10.005  1.00  0.00    -0.646 OA
ENDBRANCH  98  99
ENDBRANCH  97  98
ENDBRANCH  94  95
BRANCH  94 102
ATOM    102  CB  CYS    11      -5.084  -9.444   7.667  1.00  0.00     0.103 C 
ATOM    103  SG  CYS    11      -3.795  -8.311   8.313  1.00  0.00    -0.080 SA
ENDBRANCH  94 102
ENDBRANCH  92  94
ENDBRANCH  90  91
ENDBRANCH  89  90
ENDBRANCH  76  87
ENDBRANCH  74  76
ENDBRANCH  65  73
ENDBRANCH  63  65
ENDBRANCH  61  62
BRANCH  61 104
ATOM    104  CB  ASN     7      -7.462 -22.159   2.883  1.00  0.00     0.126 C 
BRANCH 104 105
ATOM    105  CG  ASN     7      -7.575 -23.683   2.691  1.00  0.00     0.276 C 
ATOM    106  ND2 ASN     7      -7.628 -24.105   1.448  1.00  0.00    -0.107 N 
ATOM    107  OD1 ASN     7      -7.771 -24.492   3.588  1.00  0.00    -0.269 OA
ENDBRANCH 104 105
ENDBRANCH  61 104
ENDBRANCH  59  61
ENDBRANCH   1  58
TORSDOF 42
ENDMDL
MODEL 8
REMARK VINA RESULT:      -5.4      3.771     10.802
REMARK WARNING: 32 MAX_TORS EXCEEDED!!!
REMARK  42 active torsions:
REMARK  status: ('A' for Active; 'I' for Inactive)
REMARK    1  A    between atoms: CA_2  and  CB_3 
REMARK    2  A    between atoms: CA_2  and  C_11 
REMARK    3  A    between atoms: CB_3  and  CG_4 
REMARK       I    between atoms: C_11  and  N_13 
REMARK    4  A    between atoms: N_13  and  CA_14 
REMARK    5  A    between atoms: CA_14  and  CB_15 
REMARK    6  A    between atoms: CA_14  and  C_19 
REMARK    7  A    between atoms: CB_15  and  CG_16 
REMARK       I    between atoms: C_19  and  N_21 
REMARK    8  A    between atoms: CA_22  and  C_26 
REMARK       I    between atoms: C_26  and  N_28 
REMARK    9  A    between atoms: N_28  and  CA_29 
REMARK   10  A    between atoms: CA_29  and  C_35 
REMARK   11  A    between atoms: CA_29  and  CB_30 
REMARK   12  A    between atoms: CB_30  and  CG_31 
REMARK   13  A    between atoms: CG_31  and  CD_32 
REMARK       I    between atoms: C_35  and  N_37 
REMARK   14  A    between atoms: N_37  and  CA_38 
REMARK   15  A    between atoms: CA_38  and  CB_39 
REMARK   16  A    between atoms: CA_38  and  C_47 
REMARK   17  A    between atoms: CB_39  and  CG_40 
REMARK       I    between atoms: C_47  and  N_49 
REMARK   18  A    between atoms: N_49  and  CA_50 
REMARK   19  A    between atoms: CA_50  and  CB_51 
REMARK   20  A    between atoms: CA_50  and  C_58 
REMARK   21  A    between atoms: CB_51  and  CG_52 
REMARK   22  A    between atoms: CG_52  and  CD_53 
REMARK   23  A    between atoms: CD_53  and  NE_54 
REMARK       I    between atoms: C_58  and  N_60 
REMARK   24  A    between atoms: N_60  and  CA_61 
REMARK   25  A    between atoms: CA_61  and  C_66 
REMARK   26  A    between atoms: CA_61  and  CB_62 
REMARK   27  A    between atoms: CB_62  and  CG_63 
REMARK       I    between atoms: C_66  and  N_68 
REMARK   28  A    between atoms: N_68  and  CA_69 
REMARK   29  A    between atoms: CA_69  and  CB_70 
REMARK   30  A    between atoms: CA_69  and  C_77 
REMARK   31  A    between atoms: CB_70  and  CG_71 
REMARK       I    between atoms: C_77  and  N_79 
REMARK   32  A    between atoms: N_79  and  CA_80 
REMARK   33  A    between atoms: CA_80  and  CB_81 
REMARK   34  A    between atoms: CA_80  and  C_91 
REMARK   35  A    between atoms: CB_81  and  CG_82 
REMARK       I    between atoms: C_91  and  N_93 
REMARK   36  A    between atoms: N_93  and  CA_94 
REMARK   37  A    between atoms: CA_94  and  C_95 
REMARK       I    between atoms: C_95  and  N_97 
REMARK   38  A    between atoms: N_97  and  CA_98 
REMARK   39  A    between atoms: CA_98  and  C_101 
REMARK   40  A    between atoms: CA_98  and  CB_99 
REMARK       I    between atoms: C_101  and  N_103 
REMARK   41  A    between atoms: N_103  and  CA_104 
REMARK   42  A    between atoms: CA_104  and  C_105 
ROOT
ATOM      1  CA  ARG     6       0.347   2.844  10.181  1.00  0.00     0.186 C 
ENDROOT
BRANCH   1   2
ATOM      2  N   ARG     6       1.039   3.752   9.237  1.00  0.00    -0.229 NA
ATOM      3  C   TYR     5       2.301   4.160   9.428  1.00  0.00     0.275 C 
ATOM      4  O   TYR     5       2.977   3.783  10.385  1.00  0.00    -0.268 OA
BRANCH   3   5
ATOM      5  CA  TYR     5       2.925   5.042   8.334  1.00  0.00     0.191 C 
BRANCH   5   6
ATOM      6  N   TYR     5       2.270   6.368   8.196  1.00  0.00    -0.228 NA
ATOM      7  C   GLU     4       1.729   6.803   7.046  1.00  0.00     0.274 C 
ATOM      8  O   GLU     4       1.608   6.087   6.061  1.00  0.00    -0.268 OA
BRANCH   7   9
ATOM      9  CA  GLU     4       0.968   8.143   7.120  1.00  0.00     0.187 C 
BRANCH   9  10
ATOM     10  CB  GLU     4       1.888   9.291   6.676  1.00  0.00     0.045 C 
BRANCH  10  11
ATOM     11  CG  GLU     4       1.916  10.537   7.588  1.00  0.00     0.100 C 
BRANCH  11  12
ATOM     12  CD  GLU     4       3.248  10.767   8.300  1.00  0.00     0.185 C 
ATOM     13  OE1 GLU     4       3.904  11.793   7.982  1.00  0.00    -0.647 OA
ATOM     14  OE2 GLU     4       3.818   9.758   8.763  1.00  0.00    -0.647 OA
ENDBRANCH  11  12
ENDBRANCH  10  11
ENDBRANCH   9  10
BRANCH   9  15
ATOM     15  N   GLU     4       0.454   8.446   8.470  1.00  0.00    -0.229 NA
ATOM     16  C   PRO     3      -0.606   7.928   9.079  1.00  0.00     0.272 C 
ATOM     17  O   PRO     3      -1.108   6.849   8.762  1.00  0.00    -0.269 OA
BRANCH  16  18
ATOM     18  CA  PRO     3      -0.874   8.461  10.488  1.00  0.00     0.165 C 
ATOM     19  N   PRO     3      -2.245   8.229  10.990  1.00  0.00    -0.312 N 
ATOM     20  CD  PRO     3      -2.194   7.845  12.424  1.00  0.00     0.105 C 
ATOM     21  C   ASP     2      -3.359   8.488  10.280  1.00  0.00     0.257 C 
ATOM     22  CG  PRO     3      -0.728   8.070  12.825  1.00  0.00     0.027 C 
ATOM     23  CB  PRO     3       0.044   7.826  11.531  1.00  0.00     0.034 C 
ATOM     24  O   ASP     2      -3.293   9.144   9.229  1.00  0.00    -0.270 OA
BRANCH  21  25
ATOM     25  CA  ASP     2      -4.743   8.288  10.938  1.00  0.00     0.195 C 
BRANCH  25  26
ATOM     26  CB  ASP     2      -5.118   6.835  11.327  1.00  0.00     0.132 C 
BRANCH  26  27
ATOM     27  CG  ASP     2      -6.001   6.827  12.589  1.00  0.00     0.188 C 
ATOM     28  OD2 ASP     2      -7.229   6.650  12.389  1.00  0.00    -0.647 OA
ATOM     29  OD1 ASP     2      -5.608   7.525  13.557  1.00  0.00    -0.647 OA
ENDBRANCH  26  27
ENDBRANCH  25  26
BRANCH  25  30
ATOM     30  N   ASP     2      -5.844   8.670  10.037  1.00  0.00    -0.228 NA
ATOM     31  C   TYR     1      -6.562   9.767  10.096  1.00  0.00     0.289 C 
ATOM     32  O   TYR     1      -6.384  10.755  10.816  1.00  0.00    -0.268 OA
BRANCH  31  33
ATOM     33  CA  TYR     1      -7.751   9.723   9.142  1.00  0.00     0.385 C 
ATOM     34  N   TYR     1      -8.786   8.870   9.749  1.00  0.00     0.626 N 
BRANCH  33  35
ATOM     35  CB  TYR     1      -8.225  11.161   8.939  1.00  0.00     0.075 C 
BRANCH  35  36
ATOM     36  CG  TYR     1      -8.517  11.495   7.468  1.00  0.00    -0.019 A 
ATOM     37  CD2 TYR     1      -8.526  12.804   7.012  1.00  0.00    -0.002 A 
ATOM     38  CE2 TYR     1      -8.657  13.070   5.658  1.00  0.00     0.027 A 
ATOM     39  CZ  TYR     1      -8.788  12.007   4.765  1.00  0.00     0.131 A 
ATOM     40  CE1 TYR     1      -8.820  10.705   5.231  1.00  0.00     0.027 A 
ATOM     41  OH  TYR     1      -8.729  12.226   3.436  1.00  0.00    -0.190 OA
ATOM     42  CD1 TYR     1      -8.689  10.439   6.586  1.00  0.00    -0.002 A 
ENDBRANCH  35  36
ENDBRANCH  33  35
ENDBRANCH  31  33
ENDBRANCH  25  30
ENDBRANCH  21  25
ENDBRANCH  16  18
ENDBRANCH   9  15
ENDBRANCH   7   9
ENDBRANCH   5   6
BRANCH   5  43
ATOM     43  CB  TYR     5       4.435   5.220   8.568  1.00  0.00     0.060 C 
BRANCH  43  44
ATOM     44  CG  TYR     5       5.278   4.313   7.656  1.00  0.00    -0.020 A 
ATOM     45  CD2 TYR     5       6.448   4.786   7.075  1.00  0.00    -0.002 A 
ATOM     46  CE2 TYR     5       7.208   3.955   6.258  1.00  0.00     0.027 A 
ATOM     47  CZ  TYR     5       6.799   2.652   6.021  1.00  0.00     0.131 A 
ATOM     48  CE1 TYR     5       5.638   2.166   6.612  1.00  0.00     0.027 A 
ATOM     49  OH  TYR     5       7.453   1.886   5.121  1.00  0.00    -0.190 OA
ATOM     50  CD1 TYR     5       4.873   3.003   7.425  1.00  0.00    -0.002 A 
ENDBRANCH  43  44
ENDBRANCH   5  43
ENDBRANCH   3   5
ENDBRANCH   1   2
BRANCH   1  51
ATOM     51  CB  ARG     6      -0.487   3.590  11.218  1.00  0.00     0.036 C 
BRANCH  51  52
ATOM     52  CG  ARG     6       0.103   3.544  12.630  1.00  0.00     0.029 C 
BRANCH  52  53
ATOM     53  CD  ARG     6      -0.445   2.344  13.396  1.00  0.00     0.145 C 
BRANCH  53  54
ATOM     54  NE  ARG     6       0.497   1.214  13.353  1.00  0.00    -0.083 NA
ATOM     55  CZ  ARG     6       0.245   0.006  12.814  1.00  0.00     0.782 C 
ATOM     56  NH2 ARG     6       1.143  -0.977  12.903  1.00  0.00     0.063 N 
ATOM     57  NH1 ARG     6      -0.937  -0.248  12.263  1.00  0.00     0.063 N 
ENDBRANCH  53  54
ENDBRANCH  52  53
ENDBRANCH  51  52
ENDBRANCH   1  51
BRANCH   1  58
ATOM     58  C   ARG     6      -0.604   1.873   9.470  1.00  0.00     0.274 C 
ATOM     59  N   ASN     7      -1.897   2.028   9.742  1.00  0.00    -0.228 NA
ATOM     60  O   ARG     6      -0.137   1.022   8.711  1.00  0.00    -0.268 OA
BRANCH  59  61
ATOM     61  CA  ASN     7      -2.967   1.253   9.080  1.00  0.00     0.196 C 
BRANCH  61  62
ATOM     62  C   ASN     7      -3.493   1.972   7.822  1.00  0.00     0.275 C 
ATOM     63  N   PHE     8      -4.448   2.895   8.005  1.00  0.00    -0.228 NA
ATOM     64  O   ASN     7      -2.780   1.958   6.837  1.00  0.00    -0.268 OA
BRANCH  63  65
ATOM     65  CA  PHE     8      -5.017   3.750   6.934  1.00  0.00     0.191 C 
BRANCH  65  66
ATOM     66  CB  PHE     8      -3.919   4.705   6.447  1.00  0.00     0.060 C 
BRANCH  66  67
ATOM     67  CG  PHE     8      -4.428   6.094   6.017  1.00  0.00    -0.020 A 
ATOM     68  CD1 PHE     8      -4.241   6.526   4.711  1.00  0.00    -0.004 A 
ATOM     69  CE1 PHE     8      -4.610   7.822   4.349  1.00  0.00    -0.000 A 
ATOM     70  CZ  PHE     8      -5.175   8.665   5.293  1.00  0.00    -0.000 A 
ATOM     71  CE2 PHE     8      -5.375   8.229   6.598  1.00  0.00    -0.000 A 
ATOM     72  CD2 PHE     8      -5.006   6.934   6.960  1.00  0.00    -0.004 A 
ENDBRANCH  66  67
ENDBRANCH  65  66
BRANCH  65  73
ATOM     73  C   PHE     8      -5.668   2.982   5.762  1.00  0.00     0.275 C 
ATOM     74  N   TRP     9      -6.735   2.238   6.059  1.00  0.00    -0.228 NA
ATOM     75  O   PHE     8      -5.085   2.864   4.681  1.00  0.00    -0.268 OA
BRANCH  74  76
ATOM     76  CA  TRP     9      -7.529   1.548   5.013  1.00  0.00     0.191 C 
BRANCH  76  77
ATOM     77  CB  TRP     9      -7.734   2.509   3.830  1.00  0.00     0.062 C 
BRANCH  77  78
ATOM     78  CG  TRP     9      -9.026   3.320   3.930  1.00  0.00     0.001 A 
ATOM     79  CD1 TRP     9     -10.133   3.114   3.223  1.00  0.00     0.095 A 
ATOM     80  NE1 TRP     9     -10.940   4.161   3.340  1.00  0.00    -0.244 NA
ATOM     81  CE2 TRP     9     -10.387   5.060   4.140  1.00  0.00     0.081 A 
ATOM     82  CD2 TRP     9      -9.151   4.568   4.531  1.00  0.00     0.015 A 
ATOM     83  CZ2 TRP     9     -10.763   6.348   4.519  1.00  0.00     0.019 A 
ATOM     84  CE3 TRP     9      -8.281   5.347   5.280  1.00  0.00     0.001 A 
ATOM     85  CZ3 TRP     9      -8.649   6.636   5.648  1.00  0.00     0.000 A 
ATOM     86  CH2 TRP     9      -9.901   7.125   5.280  1.00  0.00     0.002 A 
ENDBRANCH  77  78
ENDBRANCH  76  77
BRANCH  76  87
ATOM     87  C   TRP     9      -6.944   0.194   4.552  1.00  0.00     0.275 C 
ATOM     88  O   TRP     9      -5.972  -0.297   5.117  1.00  0.00    -0.268 OA
ATOM     89  N   GLY    10      -7.614  -0.439   3.590  1.00  0.00    -0.226 NA
BRANCH  89  90
ATOM     90  CA  GLY    10      -7.236  -1.771   3.042  1.00  0.00     0.218 C 
BRANCH  90  91
ATOM     91  C   GLY    10      -8.394  -2.689   2.621  1.00  0.00     0.277 C 
ATOM     92  N   CYS    11      -8.859  -3.487   3.582  1.00  0.00    -0.228 NA
ATOM     93  O   GLY    10      -8.721  -2.781   1.444  1.00  0.00    -0.268 OA
BRANCH  92  94
ATOM     94  CA  CYS    11      -9.976  -4.450   3.466  1.00  0.00     0.198 C 
BRANCH  94  95
ATOM     95  C   CYS    11     -10.963  -4.180   4.618  1.00  0.00     0.275 C 
ATOM     96  O   CYS    11     -12.167  -4.269   4.404  1.00  0.00    -0.268 OA
ATOM     97  N   GLY    12     -10.441  -3.670   5.724  1.00  0.00    -0.225 NA
BRANCH  97  98
ATOM     98  CA  GLY    12     -11.245  -3.339   6.911  1.00  0.00     0.226 C 
BRANCH  98  99
ATOM     99  C   GLY    12     -10.390  -2.434   7.829  1.00  0.00     0.211 C 
ATOM    100  O1  GLY    12     -10.779  -2.309   9.018  1.00  0.00    -0.646 OA
ATOM    101  O2  GLY    12      -9.363  -1.923   7.346  1.00  0.00    -0.646 OA
ENDBRANCH  98  99
ENDBRANCH  97  98
ENDBRANCH  94  95
BRANCH  94 102
ATOM    102  CB  CYS    11      -9.468  -5.873   3.684  1.00  0.00     0.103 C 
ATOM    103  SG  CYS    11      -7.676  -6.145   3.399  1.00  0.00    -0.080 SA
ENDBRANCH  94 102
ENDBRANCH  92  94
ENDBRANCH  90  91
ENDBRANCH  89  90
ENDBRANCH  76  87
ENDBRANCH  74  76
ENDBRANCH  65  73
ENDBRANCH  63  65
ENDBRANCH  61  62
BRANCH  61 104
ATOM    104  CB  ASN     7      -4.114   0.946  10.051  1.00  0.00     0.126 C 
BRANCH 104 105
ATOM    105  CG  ASN     7      -4.815  -0.405   9.818  1.00  0.00     0.276 C 
ATOM    106  ND2 ASN     7      -5.720  -0.428   8.867  1.00  0.00    -0.107 N 
ATOM    107  OD1 ASN     7      -4.705  -1.388  10.540  1.00  0.00    -0.269 OA
ENDBRANCH 104 105
ENDBRANCH  61 104
ENDBRANCH  59  61
ENDBRANCH   1  58
TORSDOF 42
ENDMDL
MODEL 9
REMARK VINA RESULT:      -5.3     21.946     29.023
REMARK WARNING: 32 MAX_TORS EXCEEDED!!!
REMARK  42 active torsions:
REMARK  status: ('A' for Active; 'I' for Inactive)
REMARK    1  A    between atoms: CA_2  and  CB_3 
REMARK    2  A    between atoms: CA_2  and  C_11 
REMARK    3  A    between atoms: CB_3  and  CG_4 
REMARK       I    between atoms: C_11  and  N_13 
REMARK    4  A    between atoms: N_13  and  CA_14 
REMARK    5  A    between atoms: CA_14  and  CB_15 
REMARK    6  A    between atoms: CA_14  and  C_19 
REMARK    7  A    between atoms: CB_15  and  CG_16 
REMARK       I    between atoms: C_19  and  N_21 
REMARK    8  A    between atoms: CA_22  and  C_26 
REMARK       I    between atoms: C_26  and  N_28 
REMARK    9  A    between atoms: N_28  and  CA_29 
REMARK   10  A    between atoms: CA_29  and  C_35 
REMARK   11  A    between atoms: CA_29  and  CB_30 
REMARK   12  A    between atoms: CB_30  and  CG_31 
REMARK   13  A    between atoms: CG_31  and  CD_32 
REMARK       I    between atoms: C_35  and  N_37 
REMARK   14  A    between atoms: N_37  and  CA_38 
REMARK   15  A    between atoms: CA_38  and  CB_39 
REMARK   16  A    between atoms: CA_38  and  C_47 
REMARK   17  A    between atoms: CB_39  and  CG_40 
REMARK       I    between atoms: C_47  and  N_49 
REMARK   18  A    between atoms: N_49  and  CA_50 
REMARK   19  A    between atoms: CA_50  and  CB_51 
REMARK   20  A    between atoms: CA_50  and  C_58 
REMARK   21  A    between atoms: CB_51  and  CG_52 
REMARK   22  A    between atoms: CG_52  and  CD_53 
REMARK   23  A    between atoms: CD_53  and  NE_54 
REMARK       I    between atoms: C_58  and  N_60 
REMARK   24  A    between atoms: N_60  and  CA_61 
REMARK   25  A    between atoms: CA_61  and  C_66 
REMARK   26  A    between atoms: CA_61  and  CB_62 
REMARK   27  A    between atoms: CB_62  and  CG_63 
REMARK       I    between atoms: C_66  and  N_68 
REMARK   28  A    between atoms: N_68  and  CA_69 
REMARK   29  A    between atoms: CA_69  and  CB_70 
REMARK   30  A    between atoms: CA_69  and  C_77 
REMARK   31  A    between atoms: CB_70  and  CG_71 
REMARK       I    between atoms: C_77  and  N_79 
REMARK   32  A    between atoms: N_79  and  CA_80 
REMARK   33  A    between atoms: CA_80  and  CB_81 
REMARK   34  A    between atoms: CA_80  and  C_91 
REMARK   35  A    between atoms: CB_81  and  CG_82 
REMARK       I    between atoms: C_91  and  N_93 
REMARK   36  A    between atoms: N_93  and  CA_94 
REMARK   37  A    between atoms: CA_94  and  C_95 
REMARK       I    between atoms: C_95  and  N_97 
REMARK   38  A    between atoms: N_97  and  CA_98 
REMARK   39  A    between atoms: CA_98  and  C_101 
REMARK   40  A    between atoms: CA_98  and  CB_99 
REMARK       I    between atoms: C_101  and  N_103 
REMARK   41  A    between atoms: N_103  and  CA_104 
REMARK   42  A    between atoms: CA_104  and  C_105 
ROOT
ATOM      1  CA  ARG     6      -1.523 -26.358   4.711  1.00  0.00     0.186 C 
ENDROOT
BRANCH   1   2
ATOM      2  N   ARG     6      -2.814 -26.048   4.054  1.00  0.00    -0.229 NA
ATOM      3  C   TYR     5      -3.475 -26.945   3.311  1.00  0.00     0.275 C 
ATOM      4  O   TYR     5      -3.066 -28.095   3.150  1.00  0.00    -0.268 OA
BRANCH   3   5
ATOM      5  CA  TYR     5      -4.839 -26.518   2.747  1.00  0.00     0.191 C 
BRANCH   5   6
ATOM      6  N   TYR     5      -4.990 -25.047   2.607  1.00  0.00    -0.228 NA
ATOM      7  C   GLU     4      -6.110 -24.388   2.946  1.00  0.00     0.274 C 
ATOM      8  O   GLU     4      -7.044 -24.927   3.526  1.00  0.00    -0.268 OA
BRANCH   7   9
ATOM      9  CA  GLU     4      -6.040 -22.849   2.868  1.00  0.00     0.187 C 
BRANCH   9  10
ATOM     10  CB  GLU     4      -6.339 -22.385   1.433  1.00  0.00     0.045 C 
BRANCH  10  11
ATOM     11  CG  GLU     4      -7.714 -22.788   0.857  1.00  0.00     0.100 C 
BRANCH  11  12
ATOM     12  CD  GLU     4      -8.905 -22.361   1.715  1.00  0.00     0.185 C 
ATOM     13  OE1 GLU     4      -8.818 -21.258   2.316  1.00  0.00    -0.647 OA
ATOM     14  OE2 GLU     4      -9.642 -23.271   2.144  1.00  0.00    -0.647 OA
ENDBRANCH  11  12
ENDBRANCH  10  11
ENDBRANCH   9  10
BRANCH   9  15
ATOM     15  N   GLU     4      -4.731 -22.304   3.276  1.00  0.00    -0.229 NA
ATOM     16  C   PRO     3      -4.212 -22.245   4.497  1.00  0.00     0.272 C 
ATOM     17  O   PRO     3      -4.580 -22.969   5.424  1.00  0.00    -0.269 OA
BRANCH  16  18
ATOM     18  CA  PRO     3      -2.822 -21.613   4.586  1.00  0.00     0.165 C 
ATOM     19  N   PRO     3      -2.480 -21.047   5.908  1.00  0.00    -0.312 N 
ATOM     20  CD  PRO     3      -1.064 -21.356   6.232  1.00  0.00     0.105 C 
ATOM     21  C   ASP     2      -3.296 -20.245   6.616  1.00  0.00     0.257 C 
ATOM     22  CG  PRO     3      -0.499 -21.954   4.934  1.00  0.00     0.027 C 
ATOM     23  CB  PRO     3      -1.710 -22.614   4.282  1.00  0.00     0.034 C 
ATOM     24  O   ASP     2      -4.309 -19.761   6.090  1.00  0.00    -0.270 OA
BRANCH  21  25
ATOM     25  CA  ASP     2      -2.799 -19.641   7.949  1.00  0.00     0.195 C 
BRANCH  25  26
ATOM     26  CB  ASP     2      -3.855 -19.495   9.076  1.00  0.00     0.132 C 
BRANCH  26  27
ATOM     27  CG  ASP     2      -3.475 -20.370  10.285  1.00  0.00     0.188 C 
ATOM     28  OD2 ASP     2      -4.437 -20.921  10.878  1.00  0.00    -0.647 OA
ATOM     29  OD1 ASP     2      -2.442 -20.039  10.918  1.00  0.00    -0.647 OA
ENDBRANCH  26  27
ENDBRANCH  25  26
BRANCH  25  30
ATOM     30  N   ASP     2      -2.317 -18.259   7.785  1.00  0.00    -0.228 NA
ATOM     31  C   TYR     1      -1.171 -17.773   8.202  1.00  0.00     0.289 C 
ATOM     32  O   TYR     1      -0.215 -18.388   8.686  1.00  0.00    -0.268 OA
BRANCH  31  33
ATOM     33  CA  TYR     1      -1.105 -16.256   8.051  1.00  0.00     0.385 C 
ATOM     34  N   TYR     1      -1.300 -15.936   6.627  1.00  0.00     0.626 N 
BRANCH  33  35
ATOM     35  CB  TYR     1      -2.196 -15.662   8.939  1.00  0.00     0.075 C 
BRANCH  35  36
ATOM     36  CG  TYR     1      -1.861 -14.248   9.437  1.00  0.00    -0.019 A 
ATOM     37  CD2 TYR     1      -0.595 -13.926   9.903  1.00  0.00    -0.002 A 
ATOM     38  CE2 TYR     1      -0.281 -12.613  10.218  1.00  0.00     0.027 A 
ATOM     39  CZ  TYR     1      -1.255 -11.626  10.068  1.00  0.00     0.131 A 
ATOM     40  CE1 TYR     1      -2.528 -11.961   9.643  1.00  0.00     0.027 A 
ATOM     41  OH  TYR     1      -0.924 -10.324  10.187  1.00  0.00    -0.190 OA
ATOM     42  CD1 TYR     1      -2.842 -13.274   9.327  1.00  0.00    -0.002 A 
ENDBRANCH  35  36
ENDBRANCH  33  35
ENDBRANCH  31  33
ENDBRANCH  25  30
ENDBRANCH  21  25
ENDBRANCH  16  18
ENDBRANCH   9  15
ENDBRANCH   7   9
ENDBRANCH   5   6
BRANCH   5  43
ATOM     43  CB  TYR     5      -5.117 -27.207   1.399  1.00  0.00     0.060 C 
BRANCH  43  44
ATOM     44  CG  TYR     5      -6.180 -28.312   1.516  1.00  0.00    -0.020 A 
ATOM     45  CD2 TYR     5      -7.493 -27.998   1.841  1.00  0.00    -0.002 A 
ATOM     46  CE2 TYR     5      -8.449 -29.004   1.938  1.00  0.00     0.027 A 
ATOM     47  CZ  TYR     5      -8.093 -30.324   1.709  1.00  0.00     0.131 A 
ATOM     48  CE1 TYR     5      -6.784 -30.645   1.366  1.00  0.00     0.027 A 
ATOM     49  OH  TYR     5      -8.979 -31.318   1.937  1.00  0.00    -0.190 OA
ATOM     50  CD1 TYR     5      -5.825 -29.635   1.279  1.00  0.00    -0.002 A 
ENDBRANCH  43  44
ENDBRANCH   5  43
ENDBRANCH   3   5
ENDBRANCH   1   2
BRANCH   1  51
ATOM     51  CB  ARG     6      -0.320 -25.827   3.937  1.00  0.00     0.036 C 
BRANCH  51  52
ATOM     52  CG  ARG     6      -0.624 -25.510   2.471  1.00  0.00     0.029 C 
BRANCH  52  53
ATOM     53  CD  ARG     6      -0.229 -26.685   1.581  1.00  0.00     0.145 C 
BRANCH  53  54
ATOM     54  NE  ARG     6       0.623 -27.638   2.310  1.00  0.00    -0.083 NA
ATOM     55  CZ  ARG     6       0.636 -28.972   2.130  1.00  0.00     0.782 C 
ATOM     56  NH2 ARG     6       1.390 -29.754   2.906  1.00  0.00     0.063 N 
ATOM     57  NH1 ARG     6      -0.167 -29.536   1.234  1.00  0.00     0.063 N 
ENDBRANCH  53  54
ENDBRANCH  52  53
ENDBRANCH  51  52
ENDBRANCH   1  51
BRANCH   1  58
ATOM     58  C   ARG     6      -1.428 -25.770   6.125  1.00  0.00     0.274 C 
ATOM     59  N   ASN     7      -0.287 -25.997   6.769  1.00  0.00    -0.228 NA
ATOM     60  O   ARG     6      -2.385 -25.142   6.580  1.00  0.00    -0.268 OA
BRANCH  59  61
ATOM     61  CA  ASN     7       0.026 -25.430   8.097  1.00  0.00     0.196 C 
BRANCH  61  62
ATOM     62  C   ASN     7       1.392 -24.715   8.101  1.00  0.00     0.275 C 
ATOM     63  N   PHE     8       1.484 -23.579   7.395  1.00  0.00    -0.228 NA
ATOM     64  O   ASN     7       2.154 -24.982   9.010  1.00  0.00    -0.268 OA
BRANCH  63  65
ATOM     65  CA  PHE     8       2.682 -22.706   7.346  1.00  0.00     0.191 C 
BRANCH  65  66
ATOM     66  CB  PHE     8       3.263 -22.766   5.926  1.00  0.00     0.060 C 
BRANCH  66  67
ATOM     67  CG  PHE     8       3.751 -24.163   5.497  1.00  0.00    -0.020 A 
ATOM     68  CD1 PHE     8       3.028 -24.892   4.563  1.00  0.00    -0.004 A 
ATOM     69  CE1 PHE     8       3.413 -26.196   4.252  1.00  0.00    -0.000 A 
ATOM     70  CZ  PHE     8       4.525 -26.750   4.865  1.00  0.00    -0.000 A 
ATOM     71  CE2 PHE     8       5.259 -26.016   5.791  1.00  0.00    -0.000 A 
ATOM     72  CD2 PHE     8       4.874 -24.712   6.103  1.00  0.00    -0.004 A 
ENDBRANCH  66  67
ENDBRANCH  65  66
BRANCH  65  73
ATOM     73  C   PHE     8       2.448 -21.249   7.805  1.00  0.00     0.275 C 
ATOM     74  N   TRP     9       3.464 -20.402   7.633  1.00  0.00    -0.228 NA
ATOM     75  O   PHE     8       1.483 -20.956   8.515  1.00  0.00    -0.268 OA
BRANCH  74  76
ATOM     76  CA  TRP     9       3.336 -18.950   7.914  1.00  0.00     0.191 C 
BRANCH  76  77
ATOM     77  CB  TRP     9       3.703 -18.696   9.385  1.00  0.00     0.062 C 
BRANCH  77  78
ATOM     78  CG  TRP     9       4.828 -19.599   9.890  1.00  0.00     0.001 A 
ATOM     79  CD1 TRP     9       4.702 -20.585  10.773  1.00  0.00     0.095 A 
ATOM     80  NE1 TRP     9       5.900 -20.959  11.202  1.00  0.00    -0.244 NA
ATOM     81  CE2 TRP     9       6.833 -20.241  10.593  1.00  0.00     0.081 A 
ATOM     82  CD2 TRP     9       6.189 -19.346   9.753  1.00  0.00     0.015 A 
ATOM     83  CZ2 TRP     9       8.218 -20.170  10.739  1.00  0.00     0.019 A 
ATOM     84  CE3 TRP     9       6.904 -18.374   9.069  1.00  0.00     0.001 A 
ATOM     85  CZ3 TRP     9       8.284 -18.293   9.223  1.00  0.00     0.000 A 
ATOM     86  CH2 TRP     9       8.938 -19.208  10.046  1.00  0.00     0.002 A 
ENDBRANCH  77  78
ENDBRANCH  76  77
BRANCH  76  87
ATOM     87  C   TRP     9       4.140 -18.039   6.960  1.00  0.00     0.275 C 
ATOM     88  O   TRP     9       4.259 -16.838   7.187  1.00  0.00    -0.268 OA
ATOM     89  N   GLY    10       4.767 -18.647   5.954  1.00  0.00    -0.226 NA
BRANCH  89  90
ATOM     90  CA  GLY    10       5.624 -17.950   4.956  1.00  0.00     0.218 C 
BRANCH  90  91
ATOM     91  C   GLY    10       6.956 -18.633   4.606  1.00  0.00     0.277 C 
ATOM     92  N   CYS    11       7.623 -19.133   5.645  1.00  0.00    -0.228 NA
ATOM     93  O   GLY    10       7.421 -18.549   3.475  1.00  0.00    -0.268 OA
BRANCH  92  94
ATOM     94  CA  CYS    11       8.912 -19.859   5.599  1.00  0.00     0.198 C 
BRANCH  94  95
ATOM     95  C   CYS    11       8.842 -21.024   6.605  1.00  0.00     0.275 C 
ATOM     96  O   CYS    11       7.751 -21.518   6.869  1.00  0.00    -0.268 OA
ATOM     97  N   GLY    12       9.956 -21.284   7.273  1.00  0.00    -0.225 NA
BRANCH  97  98
ATOM     98  CA  GLY    12      10.056 -22.351   8.281  1.00  0.00     0.226 C 
BRANCH  98  99
ATOM     99  C   GLY    12      10.497 -23.648   7.562  1.00  0.00     0.211 C 
ATOM    100  O1  GLY    12      11.479 -23.554   6.782  1.00  0.00    -0.646 OA
ATOM    101  O2  GLY    12       9.881 -24.696   7.826  1.00  0.00    -0.646 OA
ENDBRANCH  98  99
ENDBRANCH  97  98
ENDBRANCH  94  95
BRANCH  94 102
ATOM    102  CB  CYS    11      10.041 -18.956   6.091  1.00  0.00     0.103 C 
ATOM    103  SG  CYS    11      11.431 -18.691   4.925  1.00  0.00    -0.080 SA
ENDBRANCH  94 102
ENDBRANCH  92  94
ENDBRANCH  90  91
ENDBRANCH  89  90
ENDBRANCH  76  87
ENDBRANCH  74  76
ENDBRANCH  65  73
ENDBRANCH  63  65
ENDBRANCH  61  62
BRANCH  61 104
ATOM    104  CB  ASN     7      -0.029 -26.506   9.189  1.00  0.00     0.126 C 
BRANCH 104 105
ATOM    105  CG  ASN     7      -1.436 -26.789   9.748  1.00  0.00     0.276 C 
ATOM    106  ND2 ASN     7      -2.174 -25.736  10.013  1.00  0.00    -0.107 N 
ATOM    107  OD1 ASN     7      -1.844 -27.889  10.099  1.00  0.00    -0.269 OA
ENDBRANCH 104 105
ENDBRANCH  61 104
ENDBRANCH  59  61
ENDBRANCH   1  58
TORSDOF 42
ENDMDL
