MODEL 1
REMARK VINA RESULT:      -4.7      0.000      0.000
REMARK WARNING: 32 MAX_TORS EXCEEDED!!!
REMARK  42 active torsions:
REMARK  status: ('A' for Active; 'I' for Inactive)
REMARK    1  A    between atoms: CA_2  and  CB_3 
REMARK    2  A    between atoms: CA_2  and  C_11 
REMARK    3  A    between atoms: CB_3  and  CG_4 
REMARK       I    between atoms: C_11  and  N_13 
REMARK    4  A    between atoms: N_13  and  CA_14 
REMARK    5  A    between atoms: CA_14  and  CB_15 
REMARK    6  A    between atoms: CA_14  and  C_19 
REMARK    7  A    between atoms: CB_15  and  CG_16 
REMARK       I    between atoms: C_19  and  N_21 
REMARK    8  A    between atoms: CA_22  and  C_26 
REMARK       I    between atoms: C_26  and  N_28 
REMARK    9  A    between atoms: N_28  and  CA_29 
REMARK   10  A    between atoms: CA_29  and  C_35 
REMARK   11  A    between atoms: CA_29  and  CB_30 
REMARK   12  A    between atoms: CB_30  and  CG_31 
REMARK   13  A    between atoms: CG_31  and  CD_32 
REMARK       I    between atoms: C_35  and  N_37 
REMARK   14  A    between atoms: N_37  and  CA_38 
REMARK   15  A    between atoms: CA_38  and  CB_39 
REMARK   16  A    between atoms: CA_38  and  C_47 
REMARK   17  A    between atoms: CB_39  and  CG_40 
REMARK       I    between atoms: C_47  and  N_49 
REMARK   18  A    between atoms: N_49  and  CA_50 
REMARK   19  A    between atoms: CA_50  and  CB_51 
REMARK   20  A    between atoms: CA_50  and  C_58 
REMARK   21  A    between atoms: CB_51  and  CG_52 
REMARK   22  A    between atoms: CG_52  and  CD_53 
REMARK   23  A    between atoms: CD_53  and  NE_54 
REMARK       I    between atoms: C_58  and  N_60 
REMARK   24  A    between atoms: N_60  and  CA_61 
REMARK   25  A    between atoms: CA_61  and  C_66 
REMARK   26  A    between atoms: CA_61  and  CB_62 
REMARK   27  A    between atoms: CB_62  and  CG_63 
REMARK       I    between atoms: C_66  and  N_68 
REMARK   28  A    between atoms: N_68  and  CA_69 
REMARK   29  A    between atoms: CA_69  and  CB_70 
REMARK   30  A    between atoms: CA_69  and  C_77 
REMARK   31  A    between atoms: CB_70  and  CG_71 
REMARK       I    between atoms: C_77  and  N_79 
REMARK   32  A    between atoms: N_79  and  CA_80 
REMARK   33  A    between atoms: CA_80  and  CB_81 
REMARK   34  A    between atoms: CA_80  and  C_91 
REMARK   35  A    between atoms: CB_81  and  CG_82 
REMARK       I    between atoms: C_91  and  N_93 
REMARK   36  A    between atoms: N_93  and  CA_94 
REMARK   37  A    between atoms: CA_94  and  C_95 
REMARK       I    between atoms: C_95  and  N_97 
REMARK   38  A    between atoms: N_97  and  CA_98 
REMARK   39  A    between atoms: CA_98  and  C_101 
REMARK   40  A    between atoms: CA_98  and  CB_99 
REMARK       I    between atoms: C_101  and  N_103 
REMARK   41  A    between atoms: N_103  and  CA_104 
REMARK   42  A    between atoms: CA_104  and  C_105 
ROOT
ATOM      1  CA  ARG     6      11.264   6.820   7.294  1.00  0.00     0.186 C 
ENDROOT
BRANCH   1   2
ATOM      2  N   ARG     6      10.027   7.478   7.775  1.00  0.00    -0.229 NA
ATOM      3  C   TYR     5       9.613   8.662   7.305  1.00  0.00     0.275 C 
ATOM      4  O   TYR     5      10.219   9.267   6.421  1.00  0.00    -0.268 OA
BRANCH   3   5
ATOM      5  CA  TYR     5       8.274   9.197   7.837  1.00  0.00     0.191 C 
BRANCH   5   6
ATOM      6  N   TYR     5       7.576   8.252   8.746  1.00  0.00    -0.228 NA
ATOM      7  C   GLU     4       6.933   7.155   8.312  1.00  0.00     0.274 C 
ATOM      8  O   GLU     4       6.991   6.773   7.150  1.00  0.00    -0.268 OA
BRANCH   7   9
ATOM      9  CA  GLU     4       6.387   6.214   9.404  1.00  0.00     0.187 C 
BRANCH   9  10
ATOM     10  CB  GLU     4       6.624   4.750   8.998  1.00  0.00     0.045 C 
BRANCH  10  11
ATOM     11  CG  GLU     4       8.009   4.161   9.345  1.00  0.00     0.100 C 
BRANCH  11  12
ATOM     12  CD  GLU     4       8.330   2.847   8.634  1.00  0.00     0.185 C 
ATOM     13  OE1 GLU     4       7.449   1.948   8.655  1.00  0.00    -0.647 OA
ATOM     14  OE2 GLU     4       9.537   2.562   8.500  1.00  0.00    -0.647 OA
ENDBRANCH  11  12
ENDBRANCH  10  11
ENDBRANCH   9  10
BRANCH   9  15
ATOM     15  N   GLU     4       4.947   6.402   9.669  1.00  0.00    -0.229 NA
ATOM     16  C   PRO     3       3.960   6.517   8.788  1.00  0.00     0.272 C 
ATOM     17  O   PRO     3       4.040   6.115   7.626  1.00  0.00    -0.269 OA
BRANCH  16  18
ATOM     18  CA  PRO     3       2.567   6.705   9.391  1.00  0.00     0.165 C 
ATOM     19  N   PRO     3       1.765   7.785   8.776  1.00  0.00    -0.312 N 
ATOM     20  CD  PRO     3       0.353   7.343   8.640  1.00  0.00     0.105 C 
ATOM     21  C   ASP     2       2.232   9.023   8.535  1.00  0.00     0.257 C 
ATOM     22  CG  PRO     3       0.296   6.014   9.408  1.00  0.00     0.027 C 
ATOM     23  CB  PRO     3       1.707   5.450   9.264  1.00  0.00     0.034 C 
ATOM     24  O   ASP     2       3.315   9.389   9.017  1.00  0.00    -0.270 OA
BRANCH  21  25
ATOM     25  CA  ASP     2       1.279  10.099   7.968  1.00  0.00     0.195 C 
BRANCH  25  26
ATOM     26  CB  ASP     2       1.069  10.094   6.431  1.00  0.00     0.132 C 
BRANCH  26  27
ATOM     27  CG  ASP     2       2.363   9.668   5.713  1.00  0.00     0.188 C 
ATOM     28  OD2 ASP     2       2.498   8.432   5.528  1.00  0.00    -0.647 OA
ATOM     29  OD1 ASP     2       3.370  10.399   5.885  1.00  0.00    -0.647 OA
ENDBRANCH  26  27
ENDBRANCH  25  26
BRANCH  25  30
ATOM     30  N   ASP     2       1.773  11.464   8.216  1.00  0.00    -0.228 NA
ATOM     31  C   TYR     1       1.051  12.557   8.298  1.00  0.00     0.289 C 
ATOM     32  O   TYR     1      -0.180  12.656   8.320  1.00  0.00    -0.268 OA
BRANCH  31  33
ATOM     33  CA  TYR     1       1.918  13.812   8.345  1.00  0.00     0.385 C 
ATOM     34  N   TYR     1       2.814  13.697   9.509  1.00  0.00     0.626 N 
BRANCH  33  35
ATOM     35  CB  TYR     1       2.681  13.888   7.025  1.00  0.00     0.075 C 
BRANCH  35  36
ATOM     36  CG  TYR     1       3.037  15.327   6.619  1.00  0.00    -0.019 A 
ATOM     37  CD2 TYR     1       3.807  16.139   7.437  1.00  0.00    -0.002 A 
ATOM     38  CE2 TYR     1       4.226  17.383   6.989  1.00  0.00     0.027 A 
ATOM     39  CZ  TYR     1       3.858  17.805   5.712  1.00  0.00     0.131 A 
ATOM     40  CE1 TYR     1       3.055  17.007   4.917  1.00  0.00     0.027 A 
ATOM     41  OH  TYR     1       4.404  18.919   5.182  1.00  0.00    -0.190 OA
ATOM     42  CD1 TYR     1       2.636  15.763   5.365  1.00  0.00    -0.002 A 
ENDBRANCH  35  36
ENDBRANCH  33  35
ENDBRANCH  31  33
ENDBRANCH  25  30
ENDBRANCH  21  25
ENDBRANCH  16  18
ENDBRANCH   9  15
ENDBRANCH   7   9
ENDBRANCH   5   6
BRANCH   5  43
ATOM     43  CB  TYR     5       8.462  10.556   8.532  1.00  0.00     0.060 C 
BRANCH  43  44
ATOM     44  CG  TYR     5       7.948  11.726   7.677  1.00  0.00    -0.020 A 
ATOM     45  CD2 TYR     5       8.802  12.401   6.814  1.00  0.00    -0.002 A 
ATOM     46  CE2 TYR     5       8.325  13.454   6.039  1.00  0.00     0.027 A 
ATOM     47  CZ  TYR     5       6.994  13.831   6.126  1.00  0.00     0.131 A 
ATOM     48  CE1 TYR     5       6.128  13.149   6.973  1.00  0.00     0.027 A 
ATOM     49  OH  TYR     5       6.557  14.936   5.484  1.00  0.00    -0.190 OA
ATOM     50  CD1 TYR     5       6.611  12.100   7.756  1.00  0.00    -0.002 A 
ENDBRANCH  43  44
ENDBRANCH   5  43
ENDBRANCH   3   5
ENDBRANCH   1   2
BRANCH   1  51
ATOM     51  CB  ARG     6      12.138   6.296   8.428  1.00  0.00     0.036 C 
BRANCH  51  52
ATOM     52  CG  ARG     6      12.702   7.399   9.329  1.00  0.00     0.029 C 
BRANCH  52  53
ATOM     53  CD  ARG     6      14.060   7.865   8.811  1.00  0.00     0.145 C 
BRANCH  53  54
ATOM     54  NE  ARG     6      15.151   7.075   9.405  1.00  0.00    -0.083 NA
ATOM     55  CZ  ARG     6      15.893   6.157   8.756  1.00  0.00     0.782 C 
ATOM     56  NH2 ARG     6      16.804   5.435   9.413  1.00  0.00     0.063 N 
ATOM     57  NH1 ARG     6      15.667   5.896   7.473  1.00  0.00     0.063 N 
ENDBRANCH  53  54
ENDBRANCH  52  53
ENDBRANCH  51  52
ENDBRANCH   1  51
BRANCH   1  58
ATOM     58  C   ARG     6      10.974   5.625   6.376  1.00  0.00     0.274 C 
ATOM     59  N   ASN     7      11.988   5.224   5.614  1.00  0.00    -0.228 NA
ATOM     60  O   ARG     6       9.852   5.117   6.387  1.00  0.00    -0.268 OA
BRANCH  59  61
ATOM     61  CA  ASN     7      11.930   4.033   4.741  1.00  0.00     0.196 C 
BRANCH  61  62
ATOM     62  C   ASN     7      12.197   2.737   5.532  1.00  0.00     0.275 C 
ATOM     63  N   PHE     8      11.991   1.579   4.887  1.00  0.00    -0.228 NA
ATOM     64  O   ASN     7      12.920   2.822   6.506  1.00  0.00    -0.268 OA
BRANCH  63  65
ATOM     65  CA  PHE     8      12.273   0.235   5.447  1.00  0.00     0.191 C 
BRANCH  65  66
ATOM     66  CB  PHE     8      11.144  -0.712   5.016  1.00  0.00     0.060 C 
BRANCH  66  67
ATOM     67  CG  PHE     8      10.124  -1.032   6.124  1.00  0.00    -0.020 A 
ATOM     68  CD1 PHE     8       8.868  -1.519   5.789  1.00  0.00    -0.004 A 
ATOM     69  CE1 PHE     8       7.910  -1.712   6.785  1.00  0.00    -0.000 A 
ATOM     70  CZ  PHE     8       8.224  -1.431   8.104  1.00  0.00    -0.000 A 
ATOM     71  CE2 PHE     8       9.487  -0.956   8.444  1.00  0.00    -0.000 A 
ATOM     72  CD2 PHE     8      10.444  -0.763   7.448  1.00  0.00    -0.004 A 
ENDBRANCH  66  67
ENDBRANCH  65  66
BRANCH  65  73
ATOM     73  C   PHE     8      13.665  -0.339   5.097  1.00  0.00     0.275 C 
ATOM     74  N   TRP     9      14.126  -1.304   5.894  1.00  0.00    -0.228 NA
ATOM     75  O   PHE     8      14.403   0.235   4.293  1.00  0.00    -0.268 OA
BRANCH  74  76
ATOM     76  CA  TRP     9      15.389  -2.028   5.605  1.00  0.00     0.191 C 
BRANCH  76  77
ATOM     77  CB  TRP     9      16.270  -2.012   6.865  1.00  0.00     0.062 C 
BRANCH  77  78
ATOM     78  CG  TRP     9      17.515  -1.139   6.718  1.00  0.00     0.001 A 
ATOM     79  CD1 TRP     9      18.775  -1.561   6.767  1.00  0.00     0.095 A 
ATOM     80  NE1 TRP     9      19.591  -0.523   6.900  1.00  0.00    -0.244 NA
ATOM     81  CE2 TRP     9      18.884   0.596   6.920  1.00  0.00     0.081 A 
ATOM     82  CD2 TRP     9      17.546   0.248   6.819  1.00  0.00     0.015 A 
ATOM     83  CZ2 TRP     9      19.230   1.932   7.124  1.00  0.00     0.019 A 
ATOM     84  CE3 TRP     9      16.551   1.208   6.935  1.00  0.00     0.001 A 
ATOM     85  CZ3 TRP     9      16.895   2.538   7.152  1.00  0.00     0.000 A 
ATOM     86  CH2 TRP     9      18.239   2.896   7.227  1.00  0.00     0.002 A 
ENDBRANCH  77  78
ENDBRANCH  76  77
BRANCH  76  87
ATOM     87  C   TRP     9      15.195  -3.462   5.063  1.00  0.00     0.275 C 
ATOM     88  O   TRP     9      14.308  -3.716   4.254  1.00  0.00    -0.268 OA
ATOM     89  N   GLY    10      16.100  -4.363   5.446  1.00  0.00    -0.226 NA
BRANCH  89  90
ATOM     90  CA  GLY    10      16.111  -5.782   4.998  1.00  0.00     0.218 C 
BRANCH  90  91
ATOM     91  C   GLY    10      16.253  -6.844   6.101  1.00  0.00     0.277 C 
ATOM     92  N   CYS    11      16.761  -6.399   7.249  1.00  0.00    -0.228 NA
ATOM     93  O   GLY    10      16.070  -8.030   5.852  1.00  0.00    -0.268 OA
BRANCH  92  94
ATOM     94  CA  CYS    11      16.986  -7.190   8.480  1.00  0.00     0.198 C 
BRANCH  94  95
ATOM     95  C   CYS    11      15.631  -7.359   9.195  1.00  0.00     0.275 C 
ATOM     96  O   CYS    11      15.171  -6.415   9.829  1.00  0.00    -0.268 OA
ATOM     97  N   GLY    12      15.145  -8.590   9.239  1.00  0.00    -0.225 NA
BRANCH  97  98
ATOM     98  CA  GLY    12      13.873  -8.928   9.896  1.00  0.00     0.226 C 
BRANCH  98  99
ATOM     99  C   GLY    12      12.729  -8.650   8.893  1.00  0.00     0.211 C 
ATOM    100  O1  GLY    12      11.855  -7.819   9.249  1.00  0.00    -0.646 OA
ATOM    101  O2  GLY    12      12.767  -9.235   7.794  1.00  0.00    -0.646 OA
ENDBRANCH  98  99
ENDBRANCH  97  98
ENDBRANCH  94  95
BRANCH  94 102
ATOM    102  CB  CYS    11      17.870  -6.412   9.451  1.00  0.00     0.103 C 
ATOM    103  SG  CYS    11      19.649  -6.862   9.462  1.00  0.00    -0.080 SA
ENDBRANCH  94 102
ENDBRANCH  92  94
ENDBRANCH  90  91
ENDBRANCH  89  90
ENDBRANCH  76  87
ENDBRANCH  74  76
ENDBRANCH  65  73
ENDBRANCH  63  65
ENDBRANCH  61  62
BRANCH  61 104
ATOM    104  CB  ASN     7      12.899   4.161   3.560  1.00  0.00     0.126 C 
BRANCH 104 105
ATOM    105  CG  ASN     7      14.267   4.777   3.908  1.00  0.00     0.276 C 
ATOM    106  ND2 ASN     7      14.505   5.970   3.413  1.00  0.00    -0.107 N 
ATOM    107  OD1 ASN     7      15.182   4.185   4.466  1.00  0.00    -0.269 OA
ENDBRANCH 104 105
ENDBRANCH  61 104
ENDBRANCH  59  61
ENDBRANCH   1  58
TORSDOF 42
ENDMDL
MODEL 2
REMARK VINA RESULT:      -4.6      1.669      2.280
REMARK WARNING: 32 MAX_TORS EXCEEDED!!!
REMARK  42 active torsions:
REMARK  status: ('A' for Active; 'I' for Inactive)
REMARK    1  A    between atoms: CA_2  and  CB_3 
REMARK    2  A    between atoms: CA_2  and  C_11 
REMARK    3  A    between atoms: CB_3  and  CG_4 
REMARK       I    between atoms: C_11  and  N_13 
REMARK    4  A    between atoms: N_13  and  CA_14 
REMARK    5  A    between atoms: CA_14  and  CB_15 
REMARK    6  A    between atoms: CA_14  and  C_19 
REMARK    7  A    between atoms: CB_15  and  CG_16 
REMARK       I    between atoms: C_19  and  N_21 
REMARK    8  A    between atoms: CA_22  and  C_26 
REMARK       I    between atoms: C_26  and  N_28 
REMARK    9  A    between atoms: N_28  and  CA_29 
REMARK   10  A    between atoms: CA_29  and  C_35 
REMARK   11  A    between atoms: CA_29  and  CB_30 
REMARK   12  A    between atoms: CB_30  and  CG_31 
REMARK   13  A    between atoms: CG_31  and  CD_32 
REMARK       I    between atoms: C_35  and  N_37 
REMARK   14  A    between atoms: N_37  and  CA_38 
REMARK   15  A    between atoms: CA_38  and  CB_39 
REMARK   16  A    between atoms: CA_38  and  C_47 
REMARK   17  A    between atoms: CB_39  and  CG_40 
REMARK       I    between atoms: C_47  and  N_49 
REMARK   18  A    between atoms: N_49  and  CA_50 
REMARK   19  A    between atoms: CA_50  and  CB_51 
REMARK   20  A    between atoms: CA_50  and  C_58 
REMARK   21  A    between atoms: CB_51  and  CG_52 
REMARK   22  A    between atoms: CG_52  and  CD_53 
REMARK   23  A    between atoms: CD_53  and  NE_54 
REMARK       I    between atoms: C_58  and  N_60 
REMARK   24  A    between atoms: N_60  and  CA_61 
REMARK   25  A    between atoms: CA_61  and  C_66 
REMARK   26  A    between atoms: CA_61  and  CB_62 
REMARK   27  A    between atoms: CB_62  and  CG_63 
REMARK       I    between atoms: C_66  and  N_68 
REMARK   28  A    between atoms: N_68  and  CA_69 
REMARK   29  A    between atoms: CA_69  and  CB_70 
REMARK   30  A    between atoms: CA_69  and  C_77 
REMARK   31  A    between atoms: CB_70  and  CG_71 
REMARK       I    between atoms: C_77  and  N_79 
REMARK   32  A    between atoms: N_79  and  CA_80 
REMARK   33  A    between atoms: CA_80  and  CB_81 
REMARK   34  A    between atoms: CA_80  and  C_91 
REMARK   35  A    between atoms: CB_81  and  CG_82 
REMARK       I    between atoms: C_91  and  N_93 
REMARK   36  A    between atoms: N_93  and  CA_94 
REMARK   37  A    between atoms: CA_94  and  C_95 
REMARK       I    between atoms: C_95  and  N_97 
REMARK   38  A    between atoms: N_97  and  CA_98 
REMARK   39  A    between atoms: CA_98  and  C_101 
REMARK   40  A    between atoms: CA_98  and  CB_99 
REMARK       I    between atoms: C_101  and  N_103 
REMARK   41  A    between atoms: N_103  and  CA_104 
REMARK   42  A    between atoms: CA_104  and  C_105 
ROOT
ATOM      1  CA  ARG     6      11.545   6.980   6.892  1.00  0.00     0.186 C 
ENDROOT
BRANCH   1   2
ATOM      2  N   ARG     6      10.328   7.600   7.466  1.00  0.00    -0.229 NA
ATOM      3  C   TYR     5       9.882   8.801   7.076  1.00  0.00     0.275 C 
ATOM      4  O   TYR     5      10.438   9.456   6.194  1.00  0.00    -0.268 OA
BRANCH   3   5
ATOM      5  CA  TYR     5       8.565   9.295   7.698  1.00  0.00     0.191 C 
BRANCH   5   6
ATOM      6  N   TYR     5       7.977   8.342   8.675  1.00  0.00    -0.228 NA
ATOM      7  C   GLU     4       7.290   7.247   8.310  1.00  0.00     0.274 C 
ATOM      8  O   GLU     4       7.215   6.872   7.147  1.00  0.00    -0.268 OA
BRANCH   7   9
ATOM      9  CA  GLU     4       6.873   6.298   9.451  1.00  0.00     0.187 C 
BRANCH   9  10
ATOM     10  CB  GLU     4       7.220   4.848   9.077  1.00  0.00     0.045 C 
BRANCH  10  11
ATOM     11  CG  GLU     4       7.051   3.794  10.193  1.00  0.00     0.100 C 
BRANCH  11  12
ATOM     12  CD  GLU     4       6.184   2.597   9.803  1.00  0.00     0.185 C 
ATOM     13  OE1 GLU     4       6.776   1.559   9.408  1.00  0.00    -0.647 OA
ATOM     14  OE2 GLU     4       5.014   2.845   9.448  1.00  0.00    -0.647 OA
ENDBRANCH  11  12
ENDBRANCH  10  11
ENDBRANCH   9  10
BRANCH   9  15
ATOM     15  N   GLU     4       5.435   6.370   9.773  1.00  0.00    -0.229 NA
ATOM     16  C   PRO     3       4.406   6.374   8.933  1.00  0.00     0.272 C 
ATOM     17  O   PRO     3       4.473   5.947   7.779  1.00  0.00    -0.269 OA
BRANCH  16  18
ATOM     18  CA  PRO     3       3.027   6.461   9.590  1.00  0.00     0.165 C 
ATOM     19  N   PRO     3       2.136   7.499   9.030  1.00  0.00    -0.312 N 
ATOM     20  CD  PRO     3       0.751   6.970   8.936  1.00  0.00     0.105 C 
ATOM     21  C   ASP     2       2.514   8.769   8.799  1.00  0.00     0.257 C 
ATOM     22  CG  PRO     3       0.808   5.624   9.676  1.00  0.00     0.027 C 
ATOM     23  CB  PRO     3       2.245   5.155   9.467  1.00  0.00     0.034 C 
ATOM     24  O   ASP     2       3.588   9.194   9.249  1.00  0.00    -0.270 OA
BRANCH  21  25
ATOM     25  CA  ASP     2       1.472   9.792   8.291  1.00  0.00     0.195 C 
BRANCH  25  26
ATOM     26  CB  ASP     2       1.254   9.850   6.757  1.00  0.00     0.132 C 
BRANCH  26  27
ATOM     27  CG  ASP     2       2.541   9.442   6.015  1.00  0.00     0.188 C 
ATOM     28  OD2 ASP     2       3.305  10.388   5.696  1.00  0.00    -0.647 OA
ATOM     29  OD1 ASP     2       2.479   8.407   5.307  1.00  0.00    -0.647 OA
ENDBRANCH  26  27
ENDBRANCH  25  26
BRANCH  25  30
ATOM     30  N   ASP     2       1.856  11.178   8.611  1.00  0.00    -0.228 NA
ATOM     31  C   TYR     1       1.089  12.241   8.540  1.00  0.00     0.289 C 
ATOM     32  O   TYR     1      -0.127  12.288   8.328  1.00  0.00    -0.268 OA
BRANCH  31  33
ATOM     33  CA  TYR     1       1.881  13.530   8.734  1.00  0.00     0.385 C 
ATOM     34  N   TYR     1       2.777  13.340   9.886  1.00  0.00     0.626 N 
BRANCH  33  35
ATOM     35  CB  TYR     1       2.643  13.795   7.438  1.00  0.00     0.075 C 
BRANCH  35  36
ATOM     36  CG  TYR     1       2.247  15.120   6.767  1.00  0.00    -0.019 A 
ATOM     37  CD2 TYR     1       2.865  15.555   5.605  1.00  0.00    -0.002 A 
ATOM     38  CE2 TYR     1       2.398  16.682   4.947  1.00  0.00     0.027 A 
ATOM     39  CZ  TYR     1       1.307  17.373   5.472  1.00  0.00     0.131 A 
ATOM     40  CE1 TYR     1       0.721  16.957   6.654  1.00  0.00     0.027 A 
ATOM     41  OH  TYR     1       0.718  18.354   4.759  1.00  0.00    -0.190 OA
ATOM     42  CD1 TYR     1       1.188  15.830   7.313  1.00  0.00    -0.002 A 
ENDBRANCH  35  36
ENDBRANCH  33  35
ENDBRANCH  31  33
ENDBRANCH  25  30
ENDBRANCH  21  25
ENDBRANCH  16  18
ENDBRANCH   9  15
ENDBRANCH   7   9
ENDBRANCH   5   6
BRANCH   5  43
ATOM     43  CB  TYR     5       8.751  10.674   8.353  1.00  0.00     0.060 C 
BRANCH  43  44
ATOM     44  CG  TYR     5       8.156  11.809   7.502  1.00  0.00    -0.020 A 
ATOM     45  CD2 TYR     5       6.812  12.142   7.608  1.00  0.00    -0.002 A 
ATOM     46  CE2 TYR     5       6.284  13.175   6.839  1.00  0.00     0.027 A 
ATOM     47  CZ  TYR     5       7.101  13.875   5.964  1.00  0.00     0.131 A 
ATOM     48  CE1 TYR     5       8.451  13.560   5.866  1.00  0.00     0.027 A 
ATOM     49  OH  TYR     5       6.570  14.782   5.116  1.00  0.00    -0.190 OA
ATOM     50  CD1 TYR     5       8.976  12.518   6.631  1.00  0.00    -0.002 A 
ENDBRANCH  43  44
ENDBRANCH   5  43
ENDBRANCH   3   5
ENDBRANCH   1   2
BRANCH   1  51
ATOM     51  CB  ARG     6      12.583   6.619   7.951  1.00  0.00     0.036 C 
BRANCH  51  52
ATOM     52  CG  ARG     6      13.713   7.643   8.078  1.00  0.00     0.029 C 
BRANCH  52  53
ATOM     53  CD  ARG     6      14.403   7.844   6.732  1.00  0.00     0.145 C 
BRANCH  53  54
ATOM     54  NE  ARG     6      15.133   9.122   6.698  1.00  0.00    -0.083 NA
ATOM     55  CZ  ARG     6      15.503   9.781   5.583  1.00  0.00     0.782 C 
ATOM     56  NH2 ARG     6      16.236  10.893   5.665  1.00  0.00     0.063 N 
ATOM     57  NH1 ARG     6      15.216   9.285   4.384  1.00  0.00     0.063 N 
ENDBRANCH  53  54
ENDBRANCH  52  53
ENDBRANCH  51  52
ENDBRANCH   1  51
BRANCH   1  58
ATOM     58  C   ARG     6      11.239   5.691   6.120  1.00  0.00     0.274 C 
ATOM     59  N   ASN     7      12.252   5.181   5.424  1.00  0.00    -0.228 NA
ATOM     60  O   ARG     6      10.107   5.210   6.178  1.00  0.00    -0.268 OA
BRANCH  59  61
ATOM     61  CA  ASN     7      12.176   3.896   4.699  1.00  0.00     0.196 C 
BRANCH  61  62
ATOM     62  C   ASN     7      12.263   2.696   5.661  1.00  0.00     0.275 C 
ATOM     63  N   PHE     8      12.207   1.472   5.114  1.00  0.00    -0.228 NA
ATOM     64  O   ASN     7      12.751   2.898   6.756  1.00  0.00    -0.268 OA
BRANCH  63  65
ATOM     65  CA  PHE     8      12.359   0.200   5.861  1.00  0.00     0.191 C 
BRANCH  65  66
ATOM     66  CB  PHE     8      11.335  -0.804   5.315  1.00  0.00     0.060 C 
BRANCH  66  67
ATOM     67  CG  PHE     8      10.089  -0.989   6.201  1.00  0.00    -0.020 A 
ATOM     68  CD1 PHE     8      10.191  -0.841   7.578  1.00  0.00    -0.004 A 
ATOM     69  CE1 PHE     8       9.087  -1.108   8.388  1.00  0.00    -0.000 A 
ATOM     70  CZ  PHE     8       7.891  -1.505   7.812  1.00  0.00    -0.000 A 
ATOM     71  CE2 PHE     8       7.784  -1.640   6.432  1.00  0.00    -0.000 A 
ATOM     72  CD2 PHE     8       8.887  -1.373   5.622  1.00  0.00    -0.004 A 
ENDBRANCH  66  67
ENDBRANCH  65  66
BRANCH  65  73
ATOM     73  C   PHE     8      13.789  -0.387   5.866  1.00  0.00     0.275 C 
ATOM     74  N   TRP     9      13.916  -1.637   6.316  1.00  0.00    -0.228 NA
ATOM     75  O   PHE     8      14.773   0.340   5.708  1.00  0.00    -0.268 OA
BRANCH  74  76
ATOM     76  CA  TRP     9      15.206  -2.366   6.261  1.00  0.00     0.191 C 
BRANCH  76  77
ATOM     77  CB  TRP     9      15.597  -2.791   7.686  1.00  0.00     0.062 C 
BRANCH  77  78
ATOM     78  CG  TRP     9      16.533  -1.799   8.374  1.00  0.00     0.001 A 
ATOM     79  CD1 TRP     9      16.163  -0.715   9.049  1.00  0.00     0.095 A 
ATOM     80  NE1 TRP     9      17.216   0.066   9.256  1.00  0.00    -0.244 NA
ATOM     81  CE2 TRP     9      18.296  -0.501   8.739  1.00  0.00     0.081 A 
ATOM     82  CD2 TRP     9      17.902  -1.693   8.151  1.00  0.00     0.015 A 
ATOM     83  CZ2 TRP     9      19.616  -0.073   8.603  1.00  0.00     0.019 A 
ATOM     84  CE3 TRP     9      18.801  -2.455   7.419  1.00  0.00     0.001 A 
ATOM     85  CZ3 TRP     9      20.115  -2.023   7.272  1.00  0.00     0.000 A 
ATOM     86  CH2 TRP     9      20.521  -0.839   7.883  1.00  0.00     0.002 A 
ENDBRANCH  77  78
ENDBRANCH  76  77
BRANCH  76  87
ATOM     87  C   TRP     9      15.225  -3.564   5.284  1.00  0.00     0.275 C 
ATOM     88  O   TRP     9      14.533  -3.561   4.271  1.00  0.00    -0.268 OA
ATOM     89  N   GLY    10      16.100  -4.531   5.556  1.00  0.00    -0.226 NA
BRANCH  89  90
ATOM     90  CA  GLY    10      16.300  -5.742   4.713  1.00  0.00     0.218 C 
BRANCH  90  91
ATOM     91  C   GLY    10      16.402  -7.082   5.459  1.00  0.00     0.277 C 
ATOM     92  N   CYS    11      15.472  -7.280   6.392  1.00  0.00    -0.228 NA
ATOM     93  O   GLY    10      17.378  -7.808   5.306  1.00  0.00    -0.268 OA
BRANCH  92  94
ATOM     94  CA  CYS    11      15.317  -8.482   7.242  1.00  0.00     0.198 C 
BRANCH  94  95
ATOM     95  C   CYS    11      14.135  -9.306   6.696  1.00  0.00     0.275 C 
ATOM     96  O   CYS    11      12.999  -9.042   7.076  1.00  0.00    -0.268 OA
ATOM     97  N   GLY    12      14.451 -10.384   5.994  1.00  0.00    -0.225 NA
BRANCH  97  98
ATOM     98  CA  GLY    12      13.445 -11.288   5.415  1.00  0.00     0.226 C 
BRANCH  98  99
ATOM     99  C   GLY    12      13.239 -12.465   6.397  1.00  0.00     0.211 C 
ATOM    100  O1  GLY    12      14.174 -12.696   7.206  1.00  0.00    -0.646 OA
ATOM    101  O2  GLY    12      12.157 -13.078   6.348  1.00  0.00    -0.646 OA
ENDBRANCH  98  99
ENDBRANCH  97  98
ENDBRANCH  94  95
BRANCH  94 102
ATOM    102  CB  CYS    11      14.917  -8.076   8.659  1.00  0.00     0.103 C 
ATOM    103  SG  CYS    11      15.655  -6.521   9.293  1.00  0.00    -0.080 SA
ENDBRANCH  94 102
ENDBRANCH  92  94
ENDBRANCH  90  91
ENDBRANCH  89  90
ENDBRANCH  76  87
ENDBRANCH  74  76
ENDBRANCH  65  73
ENDBRANCH  63  65
ENDBRANCH  61  62
BRANCH  61 104
ATOM    104  CB  ASN     7      13.258   3.804   3.615  1.00  0.00     0.126 C 
BRANCH 104 105
ATOM    105  CG  ASN     7      14.627   4.385   4.015  1.00  0.00     0.276 C 
ATOM    106  ND2 ASN     7      14.980   5.497   3.413  1.00  0.00    -0.107 N 
ATOM    107  OD1 ASN     7      15.453   3.816   4.718  1.00  0.00    -0.269 OA
ENDBRANCH 104 105
ENDBRANCH  61 104
ENDBRANCH  59  61
ENDBRANCH   1  58
TORSDOF 42
ENDMDL
MODEL 3
REMARK VINA RESULT:      -4.5      2.210      2.814
REMARK WARNING: 32 MAX_TORS EXCEEDED!!!
REMARK  42 active torsions:
REMARK  status: ('A' for Active; 'I' for Inactive)
REMARK    1  A    between atoms: CA_2  and  CB_3 
REMARK    2  A    between atoms: CA_2  and  C_11 
REMARK    3  A    between atoms: CB_3  and  CG_4 
REMARK       I    between atoms: C_11  and  N_13 
REMARK    4  A    between atoms: N_13  and  CA_14 
REMARK    5  A    between atoms: CA_14  and  CB_15 
REMARK    6  A    between atoms: CA_14  and  C_19 
REMARK    7  A    between atoms: CB_15  and  CG_16 
REMARK       I    between atoms: C_19  and  N_21 
REMARK    8  A    between atoms: CA_22  and  C_26 
REMARK       I    between atoms: C_26  and  N_28 
REMARK    9  A    between atoms: N_28  and  CA_29 
REMARK   10  A    between atoms: CA_29  and  C_35 
REMARK   11  A    between atoms: CA_29  and  CB_30 
REMARK   12  A    between atoms: CB_30  and  CG_31 
REMARK   13  A    between atoms: CG_31  and  CD_32 
REMARK       I    between atoms: C_35  and  N_37 
REMARK   14  A    between atoms: N_37  and  CA_38 
REMARK   15  A    between atoms: CA_38  and  CB_39 
REMARK   16  A    between atoms: CA_38  and  C_47 
REMARK   17  A    between atoms: CB_39  and  CG_40 
REMARK       I    between atoms: C_47  and  N_49 
REMARK   18  A    between atoms: N_49  and  CA_50 
REMARK   19  A    between atoms: CA_50  and  CB_51 
REMARK   20  A    between atoms: CA_50  and  C_58 
REMARK   21  A    between atoms: CB_51  and  CG_52 
REMARK   22  A    between atoms: CG_52  and  CD_53 
REMARK   23  A    between atoms: CD_53  and  NE_54 
REMARK       I    between atoms: C_58  and  N_60 
REMARK   24  A    between atoms: N_60  and  CA_61 
REMARK   25  A    between atoms: CA_61  and  C_66 
REMARK   26  A    between atoms: CA_61  and  CB_62 
REMARK   27  A    between atoms: CB_62  and  CG_63 
REMARK       I    between atoms: C_66  and  N_68 
REMARK   28  A    between atoms: N_68  and  CA_69 
REMARK   29  A    between atoms: CA_69  and  CB_70 
REMARK   30  A    between atoms: CA_69  and  C_77 
REMARK   31  A    between atoms: CB_70  and  CG_71 
REMARK       I    between atoms: C_77  and  N_79 
REMARK   32  A    between atoms: N_79  and  CA_80 
REMARK   33  A    between atoms: CA_80  and  CB_81 
REMARK   34  A    between atoms: CA_80  and  C_91 
REMARK   35  A    between atoms: CB_81  and  CG_82 
REMARK       I    between atoms: C_91  and  N_93 
REMARK   36  A    between atoms: N_93  and  CA_94 
REMARK   37  A    between atoms: CA_94  and  C_95 
REMARK       I    between atoms: C_95  and  N_97 
REMARK   38  A    between atoms: N_97  and  CA_98 
REMARK   39  A    between atoms: CA_98  and  C_101 
REMARK   40  A    between atoms: CA_98  and  CB_99 
REMARK       I    between atoms: C_101  and  N_103 
REMARK   41  A    between atoms: N_103  and  CA_104 
REMARK   42  A    between atoms: CA_104  and  C_105 
ROOT
ATOM      1  CA  ARG     6      13.423   7.130   6.695  1.00  0.00     0.186 C 
ENDROOT
BRANCH   1   2
ATOM      2  N   ARG     6      12.150   7.766   7.106  1.00  0.00    -0.229 NA
ATOM      3  C   TYR     5      11.769   8.968   6.654  1.00  0.00     0.275 C 
ATOM      4  O   TYR     5      12.440   9.610   5.844  1.00  0.00    -0.268 OA
BRANCH   3   5
ATOM      5  CA  TYR     5      10.391   9.481   7.101  1.00  0.00     0.191 C 
BRANCH   5   6
ATOM      6  N   TYR     5       9.697   8.569   8.046  1.00  0.00    -0.228 NA
ATOM      7  C   GLU     4       8.888   7.574   7.646  1.00  0.00     0.274 C 
ATOM      8  O   GLU     4       8.769   7.251   6.471  1.00  0.00    -0.268 OA
BRANCH   7   9
ATOM      9  CA  GLU     4       8.365   6.639   8.756  1.00  0.00     0.187 C 
BRANCH   9  10
ATOM     10  CB  GLU     4       8.235   5.206   8.213  1.00  0.00     0.045 C 
BRANCH  10  11
ATOM     11  CG  GLU     4       8.198   4.077   9.266  1.00  0.00     0.100 C 
BRANCH  11  12
ATOM     12  CD  GLU     4       6.981   3.158   9.160  1.00  0.00     0.185 C 
ATOM     13  OE1 GLU     4       7.175   1.923   9.305  1.00  0.00    -0.647 OA
ATOM     14  OE2 GLU     4       6.013   3.584   8.498  1.00  0.00    -0.647 OA
ENDBRANCH  11  12
ENDBRANCH  10  11
ENDBRANCH   9  10
BRANCH   9  15
ATOM     15  N   GLU     4       7.059   7.056   9.301  1.00  0.00    -0.229 NA
ATOM     16  C   PRO     3       5.905   7.185   8.657  1.00  0.00     0.272 C 
ATOM     17  O   PRO     3       5.660   6.624   7.588  1.00  0.00    -0.269 OA
BRANCH  16  18
ATOM     18  CA  PRO     3       4.725   7.642   9.517  1.00  0.00     0.165 C 
ATOM     19  N   PRO     3       3.944   8.764   8.954  1.00  0.00    -0.312 N 
ATOM     20  CD  PRO     3       2.495   8.530   9.187  1.00  0.00     0.105 C 
ATOM     21  C   ASP     2       4.493   9.887   8.456  1.00  0.00     0.257 C 
ATOM     22  CG  PRO     3       2.453   7.308  10.117  1.00  0.00     0.027 C 
ATOM     23  CB  PRO     3       3.709   6.525   9.745  1.00  0.00     0.034 C 
ATOM     24  O   ASP     2       5.695  10.131   8.640  1.00  0.00    -0.270 OA
BRANCH  21  25
ATOM     25  CA  ASP     2       3.575  11.033   7.973  1.00  0.00     0.195 C 
BRANCH  25  26
ATOM     26  CB  ASP     2       3.174  11.010   6.476  1.00  0.00     0.132 C 
BRANCH  26  27
ATOM     27  CG  ASP     2       1.645  10.902   6.330  1.00  0.00     0.188 C 
ATOM     28  OD2 ASP     2       0.975  11.632   7.104  1.00  0.00    -0.647 OA
ATOM     29  OD1 ASP     2       1.191   9.795   5.947  1.00  0.00    -0.647 OA
ENDBRANCH  26  27
ENDBRANCH  25  26
BRANCH  25  30
ATOM     30  N   ASP     2       4.217  12.351   8.110  1.00  0.00    -0.228 NA
ATOM     31  C   TYR     1       3.702  13.420   8.673  1.00  0.00     0.289 C 
ATOM     32  O   TYR     1       2.651  13.510   9.314  1.00  0.00    -0.268 OA
BRANCH  31  33
ATOM     33  CA  TYR     1       4.562  14.659   8.439  1.00  0.00     0.385 C 
ATOM     34  N   TYR     1       5.809  14.493   9.204  1.00  0.00     0.626 N 
BRANCH  33  35
ATOM     35  CB  TYR     1       4.808  14.764   6.936  1.00  0.00     0.075 C 
BRANCH  35  36
ATOM     36  CG  TYR     1       4.053  15.933   6.284  1.00  0.00    -0.019 A 
ATOM     37  CD2 TYR     1       4.626  17.190   6.169  1.00  0.00    -0.002 A 
ATOM     38  CE2 TYR     1       3.980  18.189   5.457  1.00  0.00     0.027 A 
ATOM     39  CZ  TYR     1       2.747  17.915   4.867  1.00  0.00     0.131 A 
ATOM     40  CE1 TYR     1       2.161  16.671   5.021  1.00  0.00     0.027 A 
ATOM     41  OH  TYR     1       2.189  18.801   4.019  1.00  0.00    -0.190 OA
ATOM     42  CD1 TYR     1       2.808  15.672   5.732  1.00  0.00    -0.002 A 
ENDBRANCH  35  36
ENDBRANCH  33  35
ENDBRANCH  31  33
ENDBRANCH  25  30
ENDBRANCH  21  25
ENDBRANCH  16  18
ENDBRANCH   9  15
ENDBRANCH   7   9
ENDBRANCH   5   6
BRANCH   5  43
ATOM     43  CB  TYR     5      10.499  10.889   7.710  1.00  0.00     0.060 C 
BRANCH  43  44
ATOM     44  CG  TYR     5       9.792  11.952   6.853  1.00  0.00    -0.020 A 
ATOM     45  CD2 TYR     5       8.482  12.324   7.127  1.00  0.00    -0.002 A 
ATOM     46  CE2 TYR     5       7.853  13.292   6.350  1.00  0.00     0.027 A 
ATOM     47  CZ  TYR     5       8.533  13.888   5.299  1.00  0.00     0.131 A 
ATOM     48  CE1 TYR     5       9.850  13.534   5.029  1.00  0.00     0.027 A 
ATOM     49  OH  TYR     5       7.888  14.723   4.457  1.00  0.00    -0.190 OA
ATOM     50  CD1 TYR     5      10.476  12.556   5.804  1.00  0.00    -0.002 A 
ENDBRANCH  43  44
ENDBRANCH   5  43
ENDBRANCH   3   5
ENDBRANCH   1   2
BRANCH   1  51
ATOM     51  CB  ARG     6      14.141   6.440   7.851  1.00  0.00     0.036 C 
BRANCH  51  52
ATOM     52  CG  ARG     6      13.896   7.100   9.209  1.00  0.00     0.029 C 
BRANCH  52  53
ATOM     53  CD  ARG     6      14.846   8.278   9.407  1.00  0.00     0.145 C 
BRANCH  53  54
ATOM     54  NE  ARG     6      14.124   9.559   9.318  1.00  0.00    -0.083 NA
ATOM     55  CZ  ARG     6      14.581  10.672   8.714  1.00  0.00     0.782 C 
ATOM     56  NH2 ARG     6      13.879  11.807   8.764  1.00  0.00     0.063 N 
ATOM     57  NH1 ARG     6      15.776  10.679   8.134  1.00  0.00     0.063 N 
ENDBRANCH  53  54
ENDBRANCH  52  53
ENDBRANCH  51  52
ENDBRANCH   1  51
BRANCH   1  58
ATOM     58  C   ARG     6      13.224   6.068   5.606  1.00  0.00     0.274 C 
ATOM     59  N   ASN     7      13.677   4.851   5.896  1.00  0.00    -0.228 NA
ATOM     60  O   ARG     6      12.676   6.386   4.550  1.00  0.00    -0.268 OA
BRANCH  59  61
ATOM     61  CA  ASN     7      13.488   3.680   5.015  1.00  0.00     0.196 C 
BRANCH  61  62
ATOM     62  C   ASN     7      13.246   2.393   5.827  1.00  0.00     0.275 C 
ATOM     63  N   PHE     8      13.386   1.229   5.176  1.00  0.00    -0.228 NA
ATOM     64  O   ASN     7      13.329   2.477   7.037  1.00  0.00    -0.268 OA
BRANCH  63  65
ATOM     65  CA  PHE     8      13.280  -0.112   5.802  1.00  0.00     0.191 C 
BRANCH  65  66
ATOM     66  CB  PHE     8      12.183  -0.898   5.071  1.00  0.00     0.060 C 
BRANCH  66  67
ATOM     67  CG  PHE     8      10.814  -0.888   5.776  1.00  0.00    -0.020 A 
ATOM     68  CD1 PHE     8       9.961  -1.975   5.648  1.00  0.00    -0.004 A 
ATOM     69  CE1 PHE     8       8.682  -1.922   6.201  1.00  0.00    -0.000 A 
ATOM     70  CZ  PHE     8       8.276  -0.790   6.889  1.00  0.00    -0.000 A 
ATOM     71  CE2 PHE     8       9.134   0.295   7.030  1.00  0.00    -0.000 A 
ATOM     72  CD2 PHE     8      10.414   0.243   6.477  1.00  0.00    -0.004 A 
ENDBRANCH  66  67
ENDBRANCH  65  66
BRANCH  65  73
ATOM     73  C   PHE     8      14.603  -0.907   5.872  1.00  0.00     0.275 C 
ATOM     74  N   TRP     9      14.533  -2.132   6.395  1.00  0.00    -0.228 NA
ATOM     75  O   PHE     8      15.688  -0.348   5.694  1.00  0.00    -0.268 OA
BRANCH  74  76
ATOM     76  CA  TRP     9      15.698  -3.050   6.410  1.00  0.00     0.191 C 
BRANCH  76  77
ATOM     77  CB  TRP     9      15.888  -3.588   7.838  1.00  0.00     0.062 C 
BRANCH  77  78
ATOM     78  CG  TRP     9      15.525  -2.568   8.918  1.00  0.00     0.001 A 
ATOM     79  CD1 TRP     9      14.345  -2.454   9.519  1.00  0.00     0.095 A 
ATOM     80  NE1 TRP     9      14.285  -1.301  10.173  1.00  0.00    -0.244 NA
ATOM     81  CE2 TRP     9      15.429  -0.650  10.029  1.00  0.00     0.081 A 
ATOM     82  CD2 TRP     9      16.250  -1.420   9.220  1.00  0.00     0.015 A 
ATOM     83  CZ2 TRP     9      15.854   0.618  10.427  1.00  0.00     0.019 A 
ATOM     84  CE3 TRP     9      17.478  -0.939   8.790  1.00  0.00     0.001 A 
ATOM     85  CZ3 TRP     9      17.897   0.330   9.175  1.00  0.00     0.000 A 
ATOM     86  CH2 TRP     9      17.087   1.097  10.011  1.00  0.00     0.002 A 
ENDBRANCH  77  78
ENDBRANCH  76  77
BRANCH  76  87
ATOM     87  C   TRP     9      15.626  -4.195   5.375  1.00  0.00     0.275 C 
ATOM     88  O   TRP     9      15.206  -3.993   4.240  1.00  0.00    -0.268 OA
ATOM     89  N   GLY    10      16.135  -5.366   5.757  1.00  0.00    -0.226 NA
BRANCH  89  90
ATOM     90  CA  GLY    10      16.198  -6.575   4.891  1.00  0.00     0.218 C 
BRANCH  90  91
ATOM     91  C   GLY    10      14.988  -7.522   4.951  1.00  0.00     0.277 C 
ATOM     92  N   CYS    11      15.021  -8.417   5.937  1.00  0.00    -0.228 NA
ATOM     93  O   GLY    10      14.164  -7.539   4.044  1.00  0.00    -0.268 OA
BRANCH  92  94
ATOM     94  CA  CYS    11      13.987  -9.429   6.245  1.00  0.00     0.198 C 
BRANCH  94  95
ATOM     95  C   CYS    11      13.760  -9.433   7.769  1.00  0.00     0.275 C 
ATOM     96  O   CYS    11      14.350 -10.259   8.457  1.00  0.00    -0.268 OA
ATOM     97  N   GLY    12      12.779  -8.662   8.214  1.00  0.00    -0.225 NA
BRANCH  97  98
ATOM     98  CA  GLY    12      12.419  -8.561   9.637  1.00  0.00     0.226 C 
BRANCH  98  99
ATOM     99  C   GLY    12      11.697  -7.212   9.853  1.00  0.00     0.211 C 
ATOM    100  O1  GLY    12      10.443  -7.223   9.764  1.00  0.00    -0.646 OA
ATOM    101  O2  GLY    12      12.393  -6.219  10.134  1.00  0.00    -0.646 OA
ENDBRANCH  98  99
ENDBRANCH  97  98
ENDBRANCH  94  95
BRANCH  94 102
ATOM    102  CB  CYS    11      14.499 -10.826   5.901  1.00  0.00     0.103 C 
ATOM    103  SG  CYS    11      13.313 -11.935   5.048  1.00  0.00    -0.080 SA
ENDBRANCH  94 102
ENDBRANCH  92  94
ENDBRANCH  90  91
ENDBRANCH  89  90
ENDBRANCH  76  87
ENDBRANCH  74  76
ENDBRANCH  65  73
ENDBRANCH  63  65
ENDBRANCH  61  62
BRANCH  61 104
ATOM    104  CB  ASN     7      14.675   3.507   4.059  1.00  0.00     0.126 C 
BRANCH 104 105
ATOM    105  CG  ASN     7      16.059   3.720   4.700  1.00  0.00     0.276 C 
ATOM    106  ND2 ASN     7      16.879   4.514   4.050  1.00  0.00    -0.107 N 
ATOM    107  OD1 ASN     7      16.492   3.096   5.660  1.00  0.00    -0.269 OA
ENDBRANCH 104 105
ENDBRANCH  61 104
ENDBRANCH  59  61
ENDBRANCH   1  58
TORSDOF 42
ENDMDL
MODEL 4
REMARK VINA RESULT:      -4.1      2.148      2.816
REMARK WARNING: 32 MAX_TORS EXCEEDED!!!
REMARK  42 active torsions:
REMARK  status: ('A' for Active; 'I' for Inactive)
REMARK    1  A    between atoms: CA_2  and  CB_3 
REMARK    2  A    between atoms: CA_2  and  C_11 
REMARK    3  A    between atoms: CB_3  and  CG_4 
REMARK       I    between atoms: C_11  and  N_13 
REMARK    4  A    between atoms: N_13  and  CA_14 
REMARK    5  A    between atoms: CA_14  and  CB_15 
REMARK    6  A    between atoms: CA_14  and  C_19 
REMARK    7  A    between atoms: CB_15  and  CG_16 
REMARK       I    between atoms: C_19  and  N_21 
REMARK    8  A    between atoms: CA_22  and  C_26 
REMARK       I    between atoms: C_26  and  N_28 
REMARK    9  A    between atoms: N_28  and  CA_29 
REMARK   10  A    between atoms: CA_29  and  C_35 
REMARK   11  A    between atoms: CA_29  and  CB_30 
REMARK   12  A    between atoms: CB_30  and  CG_31 
REMARK   13  A    between atoms: CG_31  and  CD_32 
REMARK       I    between atoms: C_35  and  N_37 
REMARK   14  A    between atoms: N_37  and  CA_38 
REMARK   15  A    between atoms: CA_38  and  CB_39 
REMARK   16  A    between atoms: CA_38  and  C_47 
REMARK   17  A    between atoms: CB_39  and  CG_40 
REMARK       I    between atoms: C_47  and  N_49 
REMARK   18  A    between atoms: N_49  and  CA_50 
REMARK   19  A    between atoms: CA_50  and  CB_51 
REMARK   20  A    between atoms: CA_50  and  C_58 
REMARK   21  A    between atoms: CB_51  and  CG_52 
REMARK   22  A    between atoms: CG_52  and  CD_53 
REMARK   23  A    between atoms: CD_53  and  NE_54 
REMARK       I    between atoms: C_58  and  N_60 
REMARK   24  A    between atoms: N_60  and  CA_61 
REMARK   25  A    between atoms: CA_61  and  C_66 
REMARK   26  A    between atoms: CA_61  and  CB_62 
REMARK   27  A    between atoms: CB_62  and  CG_63 
REMARK       I    between atoms: C_66  and  N_68 
REMARK   28  A    between atoms: N_68  and  CA_69 
REMARK   29  A    between atoms: CA_69  and  CB_70 
REMARK   30  A    between atoms: CA_69  and  C_77 
REMARK   31  A    between atoms: CB_70  and  CG_71 
REMARK       I    between atoms: C_77  and  N_79 
REMARK   32  A    between atoms: N_79  and  CA_80 
REMARK   33  A    between atoms: CA_80  and  CB_81 
REMARK   34  A    between atoms: CA_80  and  C_91 
REMARK   35  A    between atoms: CB_81  and  CG_82 
REMARK       I    between atoms: C_91  and  N_93 
REMARK   36  A    between atoms: N_93  and  CA_94 
REMARK   37  A    between atoms: CA_94  and  C_95 
REMARK       I    between atoms: C_95  and  N_97 
REMARK   38  A    between atoms: N_97  and  CA_98 
REMARK   39  A    between atoms: CA_98  and  C_101 
REMARK   40  A    between atoms: CA_98  and  CB_99 
REMARK       I    between atoms: C_101  and  N_103 
REMARK   41  A    between atoms: N_103  and  CA_104 
REMARK   42  A    between atoms: CA_104  and  C_105 
ROOT
ATOM      1  CA  ARG     6      13.748   7.518   6.341  1.00  0.00     0.186 C 
ENDROOT
BRANCH   1   2
ATOM      2  N   ARG     6      12.465   8.051   6.857  1.00  0.00    -0.229 NA
ATOM      3  C   TYR     5      11.917   9.181   6.390  1.00  0.00     0.275 C 
ATOM      4  O   TYR     5      12.429   9.834   5.480  1.00  0.00    -0.268 OA
BRANCH   3   5
ATOM      5  CA  TYR     5      10.547   9.583   6.960  1.00  0.00     0.191 C 
BRANCH   5   6
ATOM      6  N   TYR     5       9.996   8.599   7.928  1.00  0.00    -0.228 NA
ATOM      7  C   GLU     4       9.271   7.531   7.557  1.00  0.00     0.274 C 
ATOM      8  O   GLU     4       9.125   7.207   6.386  1.00  0.00    -0.268 OA
BRANCH   7   9
ATOM      9  CA  GLU     4       8.900   6.541   8.680  1.00  0.00     0.187 C 
BRANCH   9  10
ATOM     10  CB  GLU     4       9.099   5.098   8.190  1.00  0.00     0.045 C 
BRANCH  10  11
ATOM     11  CG  GLU     4       8.541   3.983   9.102  1.00  0.00     0.100 C 
BRANCH  11  12
ATOM     12  CD  GLU     4       7.508   3.079   8.430  1.00  0.00     0.185 C 
ATOM     13  OE1 GLU     4       6.425   2.884   9.043  1.00  0.00    -0.647 OA
ATOM     14  OE2 GLU     4       7.941   2.246   7.609  1.00  0.00    -0.647 OA
ENDBRANCH  11  12
ENDBRANCH  10  11
ENDBRANCH   9  10
BRANCH   9  15
ATOM     15  N   GLU     4       7.510   6.691   9.153  1.00  0.00    -0.229 NA
ATOM     16  C   PRO     3       6.392   6.654   8.438  1.00  0.00     0.272 C 
ATOM     17  O   PRO     3       6.316   6.121   7.330  1.00  0.00    -0.269 OA
BRANCH  16  18
ATOM     18  CA  PRO     3       5.101   6.846   9.235  1.00  0.00     0.165 C 
ATOM     19  N   PRO     3       4.246   7.961   8.774  1.00  0.00    -0.312 N 
ATOM     20  CD  PRO     3       2.819   7.549   8.823  1.00  0.00     0.105 C 
ATOM     21  C   ASP     2       4.703   9.198   8.509  1.00  0.00     0.257 C 
ATOM     22  CG  PRO     3       2.840   6.195   9.548  1.00  0.00     0.027 C 
ATOM     23  CB  PRO     3       4.203   5.611   9.190  1.00  0.00     0.034 C 
ATOM     24  O   ASP     2       5.850   9.528   8.846  1.00  0.00    -0.270 OA
BRANCH  21  25
ATOM     25  CA  ASP     2       3.704  10.310   8.115  1.00  0.00     0.195 C 
BRANCH  25  26
ATOM     26  CB  ASP     2       3.387  10.448   6.604  1.00  0.00     0.132 C 
BRANCH  26  27
ATOM     27  CG  ASP     2       1.886  10.722   6.392  1.00  0.00     0.188 C 
ATOM     28  OD2 ASP     2       1.280   9.889   5.672  1.00  0.00    -0.647 OA
ATOM     29  OD1 ASP     2       1.523  11.925   6.417  1.00  0.00    -0.647 OA
ENDBRANCH  26  27
ENDBRANCH  25  26
BRANCH  25  30
ATOM     30  N   ASP     2       4.205  11.652   8.459  1.00  0.00    -0.228 NA
ATOM     31  C   TYR     1       3.575  12.571   9.153  1.00  0.00     0.289 C 
ATOM     32  O   TYR     1       2.510  12.462   9.769  1.00  0.00    -0.268 OA
BRANCH  31  33
ATOM     33  CA  TYR     1       4.306  13.909   9.124  1.00  0.00     0.385 C 
ATOM     34  N   TYR     1       5.735  13.637   8.896  1.00  0.00     0.626 N 
BRANCH  33  35
ATOM     35  CB  TYR     1       3.685  14.744   8.008  1.00  0.00     0.075 C 
BRANCH  35  36
ATOM     36  CG  TYR     1       4.513  15.990   7.656  1.00  0.00    -0.019 A 
ATOM     37  CD2 TYR     1       4.771  16.975   8.596  1.00  0.00    -0.002 A 
ATOM     38  CE2 TYR     1       5.632  18.019   8.294  1.00  0.00     0.027 A 
ATOM     39  CZ  TYR     1       6.227  18.067   7.034  1.00  0.00     0.131 A 
ATOM     40  CE1 TYR     1       5.933  17.103   6.087  1.00  0.00     0.027 A 
ATOM     41  OH  TYR     1       7.205  18.959   6.779  1.00  0.00    -0.190 OA
ATOM     42  CD1 TYR     1       5.072  16.058   6.389  1.00  0.00    -0.002 A 
ENDBRANCH  35  36
ENDBRANCH  33  35
ENDBRANCH  31  33
ENDBRANCH  25  30
ENDBRANCH  21  25
ENDBRANCH  16  18
ENDBRANCH   9  15
ENDBRANCH   7   9
ENDBRANCH   5   6
BRANCH   5  43
ATOM     43  CB  TYR     5      10.608  10.979   7.603  1.00  0.00     0.060 C 
BRANCH  43  44
ATOM     44  CG  TYR     5       9.894  12.043   6.753  1.00  0.00    -0.020 A 
ATOM     45  CD2 TYR     5       8.939  12.877   7.321  1.00  0.00    -0.002 A 
ATOM     46  CE2 TYR     5       8.303  13.843   6.546  1.00  0.00     0.027 A 
ATOM     47  CZ  TYR     5       8.623  13.975   5.204  1.00  0.00     0.131 A 
ATOM     48  CE1 TYR     5       9.590  13.156   4.632  1.00  0.00     0.027 A 
ATOM     49  OH  TYR     5       7.914  14.811   4.415  1.00  0.00    -0.190 OA
ATOM     50  CD1 TYR     5      10.219  12.183   5.409  1.00  0.00    -0.002 A 
ENDBRANCH  43  44
ENDBRANCH   5  43
ENDBRANCH   3   5
ENDBRANCH   1   2
BRANCH   1  51
ATOM     51  CB  ARG     6      14.636   6.942   7.439  1.00  0.00     0.036 C 
BRANCH  51  52
ATOM     52  CG  ARG     6      15.945   7.710   7.637  1.00  0.00     0.029 C 
BRANCH  52  53
ATOM     53  CD  ARG     6      17.040   7.131   6.746  1.00  0.00     0.145 C 
BRANCH  53  54
ATOM     54  NE  ARG     6      17.584   5.888   7.318  1.00  0.00    -0.083 NA
ATOM     55  CZ  ARG     6      18.840   5.432   7.146  1.00  0.00     0.782 C 
ATOM     56  NH2 ARG     6      19.205   4.248   7.642  1.00  0.00     0.063 N 
ATOM     57  NH1 ARG     6      19.706   6.116   6.407  1.00  0.00     0.063 N 
ENDBRANCH  53  54
ENDBRANCH  52  53
ENDBRANCH  51  52
ENDBRANCH   1  51
BRANCH   1  58
ATOM     58  C   ARG     6      13.546   6.402   5.309  1.00  0.00     0.274 C 
ATOM     59  N   ASN     7      13.809   5.169   5.734  1.00  0.00    -0.228 NA
ATOM     60  O   ARG     6      13.166   6.693   4.174  1.00  0.00    -0.268 OA
BRANCH  59  61
ATOM     61  CA  ASN     7      13.581   3.959   4.916  1.00  0.00     0.196 C 
BRANCH  61  62
ATOM     62  C   ASN     7      13.311   2.723   5.796  1.00  0.00     0.275 C 
ATOM     63  N   PHE     8      13.398   1.524   5.201  1.00  0.00    -0.228 NA
ATOM     64  O   ASN     7      13.421   2.864   6.998  1.00  0.00    -0.268 OA
BRANCH  63  65
ATOM     65  CA  PHE     8      13.258   0.221   5.896  1.00  0.00     0.191 C 
BRANCH  65  66
ATOM     66  CB  PHE     8      12.132  -0.569   5.214  1.00  0.00     0.060 C 
BRANCH  66  67
ATOM     67  CG  PHE     8      10.894  -0.806   6.099  1.00  0.00    -0.020 A 
ATOM     68  CD1 PHE     8      10.901  -0.393   7.424  1.00  0.00    -0.004 A 
ATOM     69  CE1 PHE     8       9.821  -0.698   8.253  1.00  0.00    -0.000 A 
ATOM     70  CZ  PHE     8       8.740  -1.399   7.743  1.00  0.00    -0.000 A 
ATOM     71  CE2 PHE     8       8.725  -1.802   6.412  1.00  0.00    -0.000 A 
ATOM     72  CD2 PHE     8       9.805  -1.497   5.584  1.00  0.00    -0.004 A 
ENDBRANCH  66  67
ENDBRANCH  65  66
BRANCH  65  73
ATOM     73  C   PHE     8      14.558  -0.609   5.995  1.00  0.00     0.275 C 
ATOM     74  N   TRP     9      14.415  -1.905   6.278  1.00  0.00    -0.228 NA
ATOM     75  O   PHE     8      15.658  -0.057   6.061  1.00  0.00    -0.268 OA
BRANCH  74  76
ATOM     76  CA  TRP     9      15.565  -2.842   6.282  1.00  0.00     0.191 C 
BRANCH  76  77
ATOM     77  CB  TRP     9      15.800  -3.332   7.720  1.00  0.00     0.062 C 
BRANCH  77  78
ATOM     78  CG  TRP     9      16.928  -2.588   8.434  1.00  0.00     0.001 A 
ATOM     79  CD1 TRP     9      16.800  -1.472   9.145  1.00  0.00     0.095 A 
ATOM     80  NE1 TRP     9      17.996  -0.943   9.369  1.00  0.00    -0.244 NA
ATOM     81  CE2 TRP     9      18.929  -1.711   8.826  1.00  0.00     0.081 A 
ATOM     82  CD2 TRP     9      18.288  -2.771   8.204  1.00  0.00     0.015 A 
ATOM     83  CZ2 TRP     9      20.310  -1.572   8.695  1.00  0.00     0.019 A 
ATOM     84  CE3 TRP     9      19.002  -3.683   7.441  1.00  0.00     0.001 A 
ATOM     85  CZ3 TRP     9      20.378  -3.539   7.298  1.00  0.00     0.000 A 
ATOM     86  CH2 TRP     9      21.029  -2.490   7.944  1.00  0.00     0.002 A 
ENDBRANCH  77  78
ENDBRANCH  76  77
BRANCH  76  87
ATOM     87  C   TRP     9      15.435  -4.021   5.292  1.00  0.00     0.275 C 
ATOM     88  O   TRP     9      14.776  -3.910   4.263  1.00  0.00    -0.268 OA
ATOM     89  N   GLY    10      16.153  -5.108   5.574  1.00  0.00    -0.226 NA
BRANCH  89  90
ATOM     90  CA  GLY    10      16.196  -6.328   4.722  1.00  0.00     0.218 C 
BRANCH  90  91
ATOM     91  C   GLY    10      15.049  -7.334   4.914  1.00  0.00     0.277 C 
ATOM     92  N   CYS    11      15.196  -8.165   5.944  1.00  0.00    -0.228 NA
ATOM     93  O   GLY    10      14.174  -7.451   4.064  1.00  0.00    -0.268 OA
BRANCH  92  94
ATOM     94  CA  CYS    11      14.243  -9.213   6.375  1.00  0.00     0.198 C 
BRANCH  94  95
ATOM     95  C   CYS    11      14.040  -9.079   7.897  1.00  0.00     0.275 C 
ATOM     96  O   CYS    11      14.979  -9.322   8.647  1.00  0.00    -0.268 OA
ATOM     97  N   GLY    12      12.792  -8.900   8.304  1.00  0.00    -0.225 NA
BRANCH  97  98
ATOM     98  CA  GLY    12      12.422  -8.769   9.722  1.00  0.00     0.226 C 
BRANCH  98  99
ATOM     99  C   GLY    12      11.751  -7.390   9.915  1.00  0.00     0.211 C 
ATOM    100  O1  GLY    12      12.514  -6.419  10.152  1.00  0.00    -0.646 OA
ATOM    101  O2  GLY    12      10.514  -7.323   9.788  1.00  0.00    -0.646 OA
ENDBRANCH  98  99
ENDBRANCH  97  98
ENDBRANCH  94  95
BRANCH  94 102
ATOM    102  CB  CYS    11      14.851 -10.597   6.160  1.00  0.00     0.103 C 
ATOM    103  SG  CYS    11      14.086 -11.622   4.846  1.00  0.00    -0.080 SA
ENDBRANCH  94 102
ENDBRANCH  92  94
ENDBRANCH  90  91
ENDBRANCH  89  90
ENDBRANCH  76  87
ENDBRANCH  74  76
ENDBRANCH  65  73
ENDBRANCH  63  65
ENDBRANCH  61  62
BRANCH  61 104
ATOM    104  CB  ASN     7      14.753   3.703   3.961  1.00  0.00     0.126 C 
BRANCH 104 105
ATOM    105  CG  ASN     7      16.149   3.880   4.587  1.00  0.00     0.276 C 
ATOM    106  ND2 ASN     7      16.932   4.762   4.010  1.00  0.00    -0.107 N 
ATOM    107  OD1 ASN     7      16.622   3.166   5.462  1.00  0.00    -0.269 OA
ENDBRANCH 104 105
ENDBRANCH  61 104
ENDBRANCH  59  61
ENDBRANCH   1  58
TORSDOF 42
ENDMDL
MODEL 5
REMARK VINA RESULT:      -4.1      7.078     16.781
REMARK WARNING: 32 MAX_TORS EXCEEDED!!!
REMARK  42 active torsions:
REMARK  status: ('A' for Active; 'I' for Inactive)
REMARK    1  A    between atoms: CA_2  and  CB_3 
REMARK    2  A    between atoms: CA_2  and  C_11 
REMARK    3  A    between atoms: CB_3  and  CG_4 
REMARK       I    between atoms: C_11  and  N_13 
REMARK    4  A    between atoms: N_13  and  CA_14 
REMARK    5  A    between atoms: CA_14  and  CB_15 
REMARK    6  A    between atoms: CA_14  and  C_19 
REMARK    7  A    between atoms: CB_15  and  CG_16 
REMARK       I    between atoms: C_19  and  N_21 
REMARK    8  A    between atoms: CA_22  and  C_26 
REMARK       I    between atoms: C_26  and  N_28 
REMARK    9  A    between atoms: N_28  and  CA_29 
REMARK   10  A    between atoms: CA_29  and  C_35 
REMARK   11  A    between atoms: CA_29  and  CB_30 
REMARK   12  A    between atoms: CB_30  and  CG_31 
REMARK   13  A    between atoms: CG_31  and  CD_32 
REMARK       I    between atoms: C_35  and  N_37 
REMARK   14  A    between atoms: N_37  and  CA_38 
REMARK   15  A    between atoms: CA_38  and  CB_39 
REMARK   16  A    between atoms: CA_38  and  C_47 
REMARK   17  A    between atoms: CB_39  and  CG_40 
REMARK       I    between atoms: C_47  and  N_49 
REMARK   18  A    between atoms: N_49  and  CA_50 
REMARK   19  A    between atoms: CA_50  and  CB_51 
REMARK   20  A    between atoms: CA_50  and  C_58 
REMARK   21  A    between atoms: CB_51  and  CG_52 
REMARK   22  A    between atoms: CG_52  and  CD_53 
REMARK   23  A    between atoms: CD_53  and  NE_54 
REMARK       I    between atoms: C_58  and  N_60 
REMARK   24  A    between atoms: N_60  and  CA_61 
REMARK   25  A    between atoms: CA_61  and  C_66 
REMARK   26  A    between atoms: CA_61  and  CB_62 
REMARK   27  A    between atoms: CB_62  and  CG_63 
REMARK       I    between atoms: C_66  and  N_68 
REMARK   28  A    between atoms: N_68  and  CA_69 
REMARK   29  A    between atoms: CA_69  and  CB_70 
REMARK   30  A    between atoms: CA_69  and  C_77 
REMARK   31  A    between atoms: CB_70  and  CG_71 
REMARK       I    between atoms: C_77  and  N_79 
REMARK   32  A    between atoms: N_79  and  CA_80 
REMARK   33  A    between atoms: CA_80  and  CB_81 
REMARK   34  A    between atoms: CA_80  and  C_91 
REMARK   35  A    between atoms: CB_81  and  CG_82 
REMARK       I    between atoms: C_91  and  N_93 
REMARK   36  A    between atoms: N_93  and  CA_94 
REMARK   37  A    between atoms: CA_94  and  C_95 
REMARK       I    between atoms: C_95  and  N_97 
REMARK   38  A    between atoms: N_97  and  CA_98 
REMARK   39  A    between atoms: CA_98  and  C_101 
REMARK   40  A    between atoms: CA_98  and  CB_99 
REMARK       I    between atoms: C_101  and  N_103 
REMARK   41  A    between atoms: N_103  and  CA_104 
REMARK   42  A    between atoms: CA_104  and  C_105 
ROOT
ATOM      1  CA  ARG     6      13.806  -9.416   5.386  1.00  0.00     0.186 C 
ENDROOT
BRANCH   1   2
ATOM      2  N   ARG     6      14.392  -8.929   6.656  1.00  0.00    -0.229 NA
ATOM      3  C   TYR     5      13.671  -8.804   7.778  1.00  0.00     0.275 C 
ATOM      4  O   TYR     5      12.480  -9.113   7.834  1.00  0.00    -0.268 OA
BRANCH   3   5
ATOM      5  CA  TYR     5      14.418  -8.358   9.045  1.00  0.00     0.191 C 
BRANCH   5   6
ATOM      6  N   TYR     5      15.103  -7.048   8.900  1.00  0.00    -0.228 NA
ATOM      7  C   GLU     4      16.432  -6.927   8.745  1.00  0.00     0.274 C 
ATOM      8  O   GLU     4      17.167  -7.891   8.571  1.00  0.00    -0.268 OA
BRANCH   7   9
ATOM      9  CA  GLU     4      16.955  -5.503   8.468  1.00  0.00     0.187 C 
BRANCH   9  10
ATOM     10  CB  GLU     4      17.063  -4.721   9.787  1.00  0.00     0.045 C 
BRANCH  10  11
ATOM     11  CG  GLU     4      18.491  -4.365  10.256  1.00  0.00     0.100 C 
BRANCH  11  12
ATOM     12  CD  GLU     4      18.755  -2.865  10.383  1.00  0.00     0.185 C 
ATOM     13  OE1 GLU     4      17.880  -2.083   9.927  1.00  0.00    -0.647 OA
ATOM     14  OE2 GLU     4      19.949  -2.512  10.474  1.00  0.00    -0.647 OA
ENDBRANCH  11  12
ENDBRANCH  10  11
ENDBRANCH   9  10
BRANCH   9  15
ATOM     15  N   GLU     4      16.102  -4.741   7.536  1.00  0.00    -0.229 NA
ATOM     16  C   PRO     3      16.430  -3.683   6.803  1.00  0.00     0.272 C 
ATOM     17  O   PRO     3      17.591  -3.399   6.506  1.00  0.00    -0.269 OA
BRANCH  16  18
ATOM     18  CA  PRO     3      15.306  -3.118   5.933  1.00  0.00     0.165 C 
ATOM     19  N   PRO     3      15.443  -1.686   5.592  1.00  0.00    -0.312 N 
ATOM     20  CD  PRO     3      15.044  -1.469   4.177  1.00  0.00     0.105 C 
ATOM     21  C   ASP     2      15.734  -0.725   6.487  1.00  0.00     0.257 C 
ATOM     22  CG  PRO     3      14.446  -2.816   3.741  1.00  0.00     0.027 C 
ATOM     23  CB  PRO     3      15.196  -3.838   4.591  1.00  0.00     0.034 C 
ATOM     24  O   ASP     2      15.693  -0.968   7.703  1.00  0.00    -0.270 OA
BRANCH  21  25
ATOM     25  CA  ASP     2      15.768   0.752   6.033  1.00  0.00     0.195 C 
BRANCH  25  26
ATOM     26  CB  ASP     2      16.811   1.664   6.731  1.00  0.00     0.132 C 
BRANCH  26  27
ATOM     27  CG  ASP     2      16.935   1.295   8.221  1.00  0.00     0.188 C 
ATOM     28  OD2 ASP     2      16.185   1.934   9.002  1.00  0.00    -0.647 OA
ATOM     29  OD1 ASP     2      18.058   0.887   8.610  1.00  0.00    -0.647 OA
ENDBRANCH  26  27
ENDBRANCH  25  26
BRANCH  25  30
ATOM     30  N   ASP     2      14.500   1.447   6.313  1.00  0.00    -0.228 NA
ATOM     31  C   TYR     1      13.760   2.106   5.452  1.00  0.00     0.289 C 
ATOM     32  O   TYR     1      13.893   2.169   4.226  1.00  0.00    -0.268 OA
BRANCH  31  33
ATOM     33  CA  TYR     1      12.636   2.877   6.138  1.00  0.00     0.385 C 
ATOM     34  N   TYR     1      11.857   3.562   5.093  1.00  0.00     0.626 N 
BRANCH  33  35
ATOM     35  CB  TYR     1      11.802   1.866   6.920  1.00  0.00     0.075 C 
BRANCH  35  36
ATOM     36  CG  TYR     1      10.572   2.494   7.592  1.00  0.00    -0.019 A 
ATOM     37  CD2 TYR     1       9.292   2.270   7.109  1.00  0.00    -0.002 A 
ATOM     38  CE2 TYR     1       8.190   2.736   7.811  1.00  0.00     0.027 A 
ATOM     39  CZ  TYR     1       8.387   3.435   9.001  1.00  0.00     0.131 A 
ATOM     40  CE1 TYR     1       9.669   3.690   9.456  1.00  0.00     0.027 A 
ATOM     41  OH  TYR     1       7.339   3.733   9.794  1.00  0.00    -0.190 OA
ATOM     42  CD1 TYR     1      10.770   3.224   8.754  1.00  0.00    -0.002 A 
ENDBRANCH  35  36
ENDBRANCH  33  35
ENDBRANCH  31  33
ENDBRANCH  25  30
ENDBRANCH  21  25
ENDBRANCH  16  18
ENDBRANCH   9  15
ENDBRANCH   7   9
ENDBRANCH   5   6
BRANCH   5  43
ATOM     43  CB  TYR     5      13.473  -8.328  10.259  1.00  0.00     0.060 C 
BRANCH  43  44
ATOM     44  CG  TYR     5      12.617  -7.051  10.299  1.00  0.00    -0.020 A 
ATOM     45  CD2 TYR     5      11.236  -7.121  10.172  1.00  0.00    -0.002 A 
ATOM     46  CE2 TYR     5      10.469  -5.961  10.217  1.00  0.00     0.027 A 
ATOM     47  CZ  TYR     5      11.084  -4.730  10.391  1.00  0.00     0.131 A 
ATOM     48  CE1 TYR     5      12.464  -4.653  10.537  1.00  0.00     0.027 A 
ATOM     49  OH  TYR     5      10.364  -3.591  10.296  1.00  0.00    -0.190 OA
ATOM     50  CD1 TYR     5      13.231  -5.816  10.482  1.00  0.00    -0.002 A 
ENDBRANCH  43  44
ENDBRANCH   5  43
ENDBRANCH   3   5
ENDBRANCH   1   2
BRANCH   1  51
ATOM     51  CB  ARG     6      14.253  -8.602   4.175  1.00  0.00     0.036 C 
BRANCH  51  52
ATOM     52  CG  ARG     6      15.090  -7.373   4.536  1.00  0.00     0.029 C 
BRANCH  52  53
ATOM     53  CD  ARG     6      16.534  -7.560   4.080  1.00  0.00     0.145 C 
BRANCH  53  54
ATOM     54  NE  ARG     6      17.470  -6.900   5.005  1.00  0.00    -0.083 NA
ATOM     55  CZ  ARG     6      18.688  -7.361   5.346  1.00  0.00     0.782 C 
ATOM     56  NH2 ARG     6      19.423  -6.724   6.260  1.00  0.00     0.063 N 
ATOM     57  NH1 ARG     6      19.138  -8.504   4.839  1.00  0.00     0.063 N 
ENDBRANCH  53  54
ENDBRANCH  52  53
ENDBRANCH  51  52
ENDBRANCH   1  51
BRANCH   1  58
ATOM     58  C   ARG     6      14.172 -10.876   5.092  1.00  0.00     0.274 C 
ATOM     59  N   ASN     7      13.868 -11.751   6.047  1.00  0.00    -0.228 NA
ATOM     60  O   ARG     6      14.716 -11.157   4.023  1.00  0.00    -0.268 OA
BRANCH  59  61
ATOM     61  CA  ASN     7      14.055 -13.210   5.906  1.00  0.00     0.196 C 
BRANCH  61  62
ATOM     62  C   ASN     7      12.706 -13.956   5.903  1.00  0.00     0.275 C 
ATOM     63  N   PHE     8      12.593 -15.008   6.729  1.00  0.00    -0.228 NA
ATOM     64  O   ASN     7      11.740 -13.353   5.479  1.00  0.00    -0.268 OA
BRANCH  63  65
ATOM     65  CA  PHE     8      11.353 -15.797   6.931  1.00  0.00     0.191 C 
BRANCH  65  66
ATOM     66  CB  PHE     8      11.399 -17.013   5.995  1.00  0.00     0.060 C 
BRANCH  66  67
ATOM     67  CG  PHE     8      10.016 -17.555   5.588  1.00  0.00    -0.020 A 
ATOM     68  CD1 PHE     8       8.921 -16.703   5.556  1.00  0.00    -0.004 A 
ATOM     69  CE1 PHE     8       7.652 -17.215   5.286  1.00  0.00    -0.000 A 
ATOM     70  CZ  PHE     8       7.494 -18.569   5.038  1.00  0.00    -0.000 A 
ATOM     71  CE2 PHE     8       8.593 -19.422   5.056  1.00  0.00    -0.000 A 
ATOM     72  CD2 PHE     8       9.862 -18.910   5.326  1.00  0.00    -0.004 A 
ENDBRANCH  66  67
ENDBRANCH  65  66
BRANCH  65  73
ATOM     73  C   PHE     8      11.076 -16.212   8.394  1.00  0.00     0.275 C 
ATOM     74  N   TRP     9       9.974 -16.933   8.607  1.00  0.00    -0.228 NA
ATOM     75  O   PHE     8      11.693 -15.694   9.328  1.00  0.00    -0.268 OA
BRANCH  74  76
ATOM     76  CA  TRP     9       9.651 -17.502   9.938  1.00  0.00     0.191 C 
BRANCH  76  77
ATOM     77  CB  TRP     9       8.329 -16.890  10.432  1.00  0.00     0.062 C 
BRANCH  77  78
ATOM     78  CG  TRP     9       7.652 -16.000   9.391  1.00  0.00     0.001 A 
ATOM     79  CD1 TRP     9       7.786 -14.681   9.286  1.00  0.00     0.095 A 
ATOM     80  NE1 TRP     9       6.848 -14.198   8.481  1.00  0.00    -0.244 NA
ATOM     81  CE2 TRP     9       6.097 -15.191   8.030  1.00  0.00     0.081 A 
ATOM     82  CD2 TRP     9       6.568 -16.364   8.599  1.00  0.00     0.015 A 
ATOM     83  CZ2 TRP     9       4.946 -15.226   7.244  1.00  0.00     0.019 A 
ATOM     84  CE3 TRP     9       5.901 -17.565   8.408  1.00  0.00     0.001 A 
ATOM     85  CZ3 TRP     9       4.745 -17.599   7.634  1.00  0.00     0.000 A 
ATOM     86  CH2 TRP     9       4.283 -16.427   7.039  1.00  0.00     0.002 A 
ENDBRANCH  77  78
ENDBRANCH  76  77
BRANCH  76  87
ATOM     87  C   TRP     9       9.615 -19.047   9.984  1.00  0.00     0.275 C 
ATOM     88  O   TRP     9       8.652 -19.668   9.546  1.00  0.00    -0.268 OA
ATOM     89  N   GLY    10      10.719 -19.648  10.427  1.00  0.00    -0.226 NA
BRANCH  89  90
ATOM     90  CA  GLY    10      10.896 -21.124  10.506  1.00  0.00     0.218 C 
BRANCH  90  91
ATOM     91  C   GLY    10      11.880 -21.747   9.503  1.00  0.00     0.277 C 
ATOM     92  N   CYS    11      12.425 -20.890   8.642  1.00  0.00    -0.228 NA
ATOM     93  O   GLY    10      11.994 -22.964   9.416  1.00  0.00    -0.268 OA
BRANCH  92  94
ATOM     94  CA  CYS    11      13.416 -21.207   7.589  1.00  0.00     0.198 C 
BRANCH  94  95
ATOM     95  C   CYS    11      14.246 -19.938   7.315  1.00  0.00     0.275 C 
ATOM     96  O   CYS    11      15.224 -20.013   6.579  1.00  0.00    -0.268 OA
ATOM     97  N   GLY    12      13.956 -18.880   8.059  1.00  0.00    -0.225 NA
BRANCH  97  98
ATOM     98  CA  GLY    12      14.662 -17.596   7.937  1.00  0.00     0.226 C 
BRANCH  98  99
ATOM     99  C   GLY    12      14.951 -17.072   9.363  1.00  0.00     0.211 C 
ATOM    100  O1  GLY    12      14.195 -17.483  10.279  1.00  0.00    -0.646 OA
ATOM    101  O2  GLY    12      15.927 -16.314   9.516  1.00  0.00    -0.646 OA
ENDBRANCH  98  99
ENDBRANCH  97  98
ENDBRANCH  94  95
BRANCH  94 102
ATOM    102  CB  CYS    11      12.704 -21.525   6.276  1.00  0.00     0.103 C 
ATOM    103  SG  CYS    11      12.954 -23.217   5.611  1.00  0.00    -0.080 SA
ENDBRANCH  94 102
ENDBRANCH  92  94
ENDBRANCH  90  91
ENDBRANCH  89  90
ENDBRANCH  76  87
ENDBRANCH  74  76
ENDBRANCH  65  73
ENDBRANCH  63  65
ENDBRANCH  61  62
BRANCH  61 104
ATOM    104  CB  ASN     7      14.981 -13.761   6.997  1.00  0.00     0.126 C 
BRANCH 104 105
ATOM    105  CG  ASN     7      16.475 -13.788   6.624  1.00  0.00     0.276 C 
ATOM    106  ND2 ASN     7      17.041 -14.973   6.593  1.00  0.00    -0.107 N 
ATOM    107  OD1 ASN     7      17.190 -12.800   6.513  1.00  0.00    -0.269 OA
ENDBRANCH 104 105
ENDBRANCH  61 104
ENDBRANCH  59  61
ENDBRANCH   1  58
TORSDOF 42
ENDMDL
MODEL 6
REMARK VINA RESULT:      -3.9      8.542     17.653
REMARK WARNING: 32 MAX_TORS EXCEEDED!!!
REMARK  42 active torsions:
REMARK  status: ('A' for Active; 'I' for Inactive)
REMARK    1  A    between atoms: CA_2  and  CB_3 
REMARK    2  A    between atoms: CA_2  and  C_11 
REMARK    3  A    between atoms: CB_3  and  CG_4 
REMARK       I    between atoms: C_11  and  N_13 
REMARK    4  A    between atoms: N_13  and  CA_14 
REMARK    5  A    between atoms: CA_14  and  CB_15 
REMARK    6  A    between atoms: CA_14  and  C_19 
REMARK    7  A    between atoms: CB_15  and  CG_16 
REMARK       I    between atoms: C_19  and  N_21 
REMARK    8  A    between atoms: CA_22  and  C_26 
REMARK       I    between atoms: C_26  and  N_28 
REMARK    9  A    between atoms: N_28  and  CA_29 
REMARK   10  A    between atoms: CA_29  and  C_35 
REMARK   11  A    between atoms: CA_29  and  CB_30 
REMARK   12  A    between atoms: CB_30  and  CG_31 
REMARK   13  A    between atoms: CG_31  and  CD_32 
REMARK       I    between atoms: C_35  and  N_37 
REMARK   14  A    between atoms: N_37  and  CA_38 
REMARK   15  A    between atoms: CA_38  and  CB_39 
REMARK   16  A    between atoms: CA_38  and  C_47 
REMARK   17  A    between atoms: CB_39  and  CG_40 
REMARK       I    between atoms: C_47  and  N_49 
REMARK   18  A    between atoms: N_49  and  CA_50 
REMARK   19  A    between atoms: CA_50  and  CB_51 
REMARK   20  A    between atoms: CA_50  and  C_58 
REMARK   21  A    between atoms: CB_51  and  CG_52 
REMARK   22  A    between atoms: CG_52  and  CD_53 
REMARK   23  A    between atoms: CD_53  and  NE_54 
REMARK       I    between atoms: C_58  and  N_60 
REMARK   24  A    between atoms: N_60  and  CA_61 
REMARK   25  A    between atoms: CA_61  and  C_66 
REMARK   26  A    between atoms: CA_61  and  CB_62 
REMARK   27  A    between atoms: CB_62  and  CG_63 
REMARK       I    between atoms: C_66  and  N_68 
REMARK   28  A    between atoms: N_68  and  CA_69 
REMARK   29  A    between atoms: CA_69  and  CB_70 
REMARK   30  A    between atoms: CA_69  and  C_77 
REMARK   31  A    between atoms: CB_70  and  CG_71 
REMARK       I    between atoms: C_77  and  N_79 
REMARK   32  A    between atoms: N_79  and  CA_80 
REMARK   33  A    between atoms: CA_80  and  CB_81 
REMARK   34  A    between atoms: CA_80  and  C_91 
REMARK   35  A    between atoms: CB_81  and  CG_82 
REMARK       I    between atoms: C_91  and  N_93 
REMARK   36  A    between atoms: N_93  and  CA_94 
REMARK   37  A    between atoms: CA_94  and  C_95 
REMARK       I    between atoms: C_95  and  N_97 
REMARK   38  A    between atoms: N_97  and  CA_98 
REMARK   39  A    between atoms: CA_98  and  C_101 
REMARK   40  A    between atoms: CA_98  and  CB_99 
REMARK       I    between atoms: C_101  and  N_103 
REMARK   41  A    between atoms: N_103  and  CA_104 
REMARK   42  A    between atoms: CA_104  and  C_105 
ROOT
ATOM      1  CA  ARG     6      13.824  -9.530   5.330  1.00  0.00     0.186 C 
ENDROOT
BRANCH   1   2
ATOM      2  N   ARG     6      14.458  -9.115   6.604  1.00  0.00    -0.229 NA
ATOM      3  C   TYR     5      13.775  -9.038   7.754  1.00  0.00     0.275 C 
ATOM      4  O   TYR     5      12.583  -9.337   7.833  1.00  0.00    -0.268 OA
BRANCH   3   5
ATOM      5  CA  TYR     5      14.569  -8.666   9.016  1.00  0.00     0.191 C 
BRANCH   5   6
ATOM      6  N   TYR     5      15.298  -7.376   8.899  1.00  0.00    -0.228 NA
ATOM      7  C   GLU     4      16.626  -7.299   8.710  1.00  0.00     0.274 C 
ATOM      8  O   GLU     4      17.318  -8.281   8.478  1.00  0.00    -0.268 OA
BRANCH   7   9
ATOM      9  CA  GLU     4      17.193  -5.885   8.470  1.00  0.00     0.187 C 
BRANCH   9  10
ATOM     10  CB  GLU     4      17.415  -5.177   9.816  1.00  0.00     0.045 C 
BRANCH  10  11
ATOM     11  CG  GLU     4      18.754  -5.469  10.530  1.00  0.00     0.100 C 
BRANCH  11  12
ATOM     12  CD  GLU     4      19.985  -4.929   9.803  1.00  0.00     0.185 C 
ATOM     13  OE1 GLU     4      19.894  -3.786   9.284  1.00  0.00    -0.647 OA
ATOM     14  OE2 GLU     4      20.792  -5.773   9.364  1.00  0.00    -0.647 OA
ENDBRANCH  11  12
ENDBRANCH  10  11
ENDBRANCH   9  10
BRANCH   9  15
ATOM     15  N   GLU     4      16.320  -5.041   7.632  1.00  0.00    -0.229 NA
ATOM     16  C   PRO     3      16.675  -4.179   6.686  1.00  0.00     0.272 C 
ATOM     17  O   PRO     3      17.761  -4.222   6.105  1.00  0.00    -0.269 OA
BRANCH  16  18
ATOM     18  CA  PRO     3      15.518  -3.453   5.997  1.00  0.00     0.165 C 
ATOM     19  N   PRO     3      15.730  -2.005   5.787  1.00  0.00    -0.312 N 
ATOM     20  CD  PRO     3      15.215  -1.613   4.451  1.00  0.00     0.105 C 
ATOM     21  C   ASP     2      16.178  -1.166   6.739  1.00  0.00     0.257 C 
ATOM     22  CG  PRO     3      14.477  -2.863   3.947  1.00  0.00     0.027 C 
ATOM     23  CB  PRO     3      15.225  -4.017   4.609  1.00  0.00     0.034 C 
ATOM     24  O   ASP     2      16.236  -1.534   7.922  1.00  0.00    -0.270 OA
BRANCH  21  25
ATOM     25  CA  ASP     2      16.280   0.346   6.433  1.00  0.00     0.195 C 
BRANCH  25  26
ATOM     26  CB  ASP     2      17.184   1.181   7.378  1.00  0.00     0.132 C 
BRANCH  26  27
ATOM     27  CG  ASP     2      18.526   1.501   6.693  1.00  0.00     0.188 C 
ATOM     28  OD2 ASP     2      18.515   2.490   5.917  1.00  0.00    -0.647 OA
ATOM     29  OD1 ASP     2      19.295   0.531   6.478  1.00  0.00    -0.647 OA
ENDBRANCH  26  27
ENDBRANCH  25  26
BRANCH  25  30
ATOM     30  N   ASP     2      14.979   1.025   6.556  1.00  0.00    -0.228 NA
ATOM     31  C   TYR     1      14.160   0.972   7.580  1.00  0.00     0.289 C 
ATOM     32  O   TYR     1      14.360   0.466   8.689  1.00  0.00    -0.268 OA
BRANCH  31  33
ATOM     33  CA  TYR     1      12.813   1.618   7.269  1.00  0.00     0.385 C 
ATOM     34  N   TYR     1      12.181   0.844   6.188  1.00  0.00     0.626 N 
BRANCH  33  35
ATOM     35  CB  TYR     1      11.992   1.603   8.556  1.00  0.00     0.075 C 
BRANCH  35  36
ATOM     36  CG  TYR     1      10.682   0.813   8.424  1.00  0.00    -0.019 A 
ATOM     37  CD2 TYR     1       9.461   1.456   8.283  1.00  0.00    -0.002 A 
ATOM     38  CE2 TYR     1       8.312   0.722   8.030  1.00  0.00     0.027 A 
ATOM     39  CZ  TYR     1       8.400  -0.665   7.926  1.00  0.00     0.131 A 
ATOM     40  CE1 TYR     1       9.614  -1.303   8.108  1.00  0.00     0.027 A 
ATOM     41  OH  TYR     1       7.341  -1.382   7.497  1.00  0.00    -0.190 OA
ATOM     42  CD1 TYR     1      10.763  -0.570   8.361  1.00  0.00    -0.002 A 
ENDBRANCH  35  36
ENDBRANCH  33  35
ENDBRANCH  31  33
ENDBRANCH  25  30
ENDBRANCH  21  25
ENDBRANCH  16  18
ENDBRANCH   9  15
ENDBRANCH   7   9
ENDBRANCH   5   6
BRANCH   5  43
ATOM     43  CB  TYR     5      13.655  -8.645  10.253  1.00  0.00     0.060 C 
BRANCH  43  44
ATOM     44  CG  TYR     5      12.765  -7.392  10.300  1.00  0.00    -0.020 A 
ATOM     45  CD2 TYR     5      11.385  -7.500  10.185  1.00  0.00    -0.002 A 
ATOM     46  CE2 TYR     5      10.587  -6.361  10.235  1.00  0.00     0.027 A 
ATOM     47  CZ  TYR     5      11.169  -5.114  10.402  1.00  0.00     0.131 A 
ATOM     48  CE1 TYR     5      12.548  -4.999  10.536  1.00  0.00     0.027 A 
ATOM     49  OH  TYR     5      10.417  -3.995  10.312  1.00  0.00    -0.190 OA
ATOM     50  CD1 TYR     5      13.346  -6.141  10.475  1.00  0.00    -0.002 A 
ENDBRANCH  43  44
ENDBRANCH   5  43
ENDBRANCH   3   5
ENDBRANCH   1   2
BRANCH   1  51
ATOM     51  CB  ARG     6      14.287  -8.698   4.138  1.00  0.00     0.036 C 
BRANCH  51  52
ATOM     52  CG  ARG     6      15.059  -7.437   4.532  1.00  0.00     0.029 C 
BRANCH  52  53
ATOM     53  CD  ARG     6      16.518  -7.551   4.101  1.00  0.00     0.145 C 
BRANCH  53  54
ATOM     54  NE  ARG     6      16.980  -8.948   4.164  1.00  0.00    -0.083 NA
ATOM     55  CZ  ARG     6      18.149  -9.361   4.688  1.00  0.00     0.782 C 
ATOM     56  NH2 ARG     6      18.507 -10.645   4.619  1.00  0.00     0.063 N 
ATOM     57  NH1 ARG     6      19.001  -8.482   5.203  1.00  0.00     0.063 N 
ENDBRANCH  53  54
ENDBRANCH  52  53
ENDBRANCH  51  52
ENDBRANCH   1  51
BRANCH   1  58
ATOM     58  C   ARG     6      14.115 -10.996   4.982  1.00  0.00     0.274 C 
ATOM     59  N   ASN     7      13.784 -11.887   5.913  1.00  0.00    -0.228 NA
ATOM     60  O   ARG     6      14.626 -11.265   3.894  1.00  0.00    -0.268 OA
BRANCH  59  61
ATOM     61  CA  ASN     7      13.898 -13.347   5.719  1.00  0.00     0.196 C 
BRANCH  61  62
ATOM     62  C   ASN     7      12.517 -14.031   5.745  1.00  0.00     0.275 C 
ATOM     63  N   PHE     8      12.376 -15.083   6.566  1.00  0.00    -0.228 NA
ATOM     64  O   ASN     7      11.569 -13.381   5.351  1.00  0.00    -0.268 OA
BRANCH  63  65
ATOM     65  CA  PHE     8      11.107 -15.816   6.795  1.00  0.00     0.191 C 
BRANCH  65  66
ATOM     66  CB  PHE     8      11.066 -17.016   5.837  1.00  0.00     0.060 C 
BRANCH  66  67
ATOM     67  CG  PHE     8       9.654 -17.574   5.577  1.00  0.00    -0.020 A 
ATOM     68  CD1 PHE     8       9.439 -18.945   5.591  1.00  0.00    -0.004 A 
ATOM     69  CE1 PHE     8       8.184 -19.454   5.255  1.00  0.00    -0.000 A 
ATOM     70  CZ  PHE     8       7.156 -18.587   4.924  1.00  0.00    -0.000 A 
ATOM     71  CE2 PHE     8       7.366 -17.212   4.923  1.00  0.00    -0.000 A 
ATOM     72  CD2 PHE     8       8.621 -16.703   5.259  1.00  0.00    -0.004 A 
ENDBRANCH  66  67
ENDBRANCH  65  66
BRANCH  65  73
ATOM     73  C   PHE     8      10.855 -16.245   8.258  1.00  0.00     0.275 C 
ATOM     74  N   TRP     9       9.802 -17.035   8.472  1.00  0.00    -0.228 NA
ATOM     75  O   PHE     8      11.437 -15.685   9.191  1.00  0.00    -0.268 OA
BRANCH  74  76
ATOM     76  CA  TRP     9       9.515 -17.621   9.805  1.00  0.00     0.191 C 
BRANCH  76  77
ATOM     77  CB  TRP     9       8.154 -17.098  10.293  1.00  0.00     0.062 C 
BRANCH  77  78
ATOM     78  CG  TRP     9       7.405 -16.288   9.236  1.00  0.00     0.001 A 
ATOM     79  CD1 TRP     9       7.437 -14.966   9.097  1.00  0.00     0.095 A 
ATOM     80  NE1 TRP     9       6.460 -14.577   8.288  1.00  0.00    -0.244 NA
ATOM     81  CE2 TRP     9       5.784 -15.636   7.867  1.00  0.00     0.081 A 
ATOM     82  CD2 TRP     9       6.347 -16.754   8.461  1.00  0.00     0.015 A 
ATOM     83  CZ2 TRP     9       4.635 -15.778   7.090  1.00  0.00     0.019 A 
ATOM     84  CE3 TRP     9       5.773 -18.007   8.305  1.00  0.00     0.001 A 
ATOM     85  CZ3 TRP     9       4.619 -18.149   7.541  1.00  0.00     0.000 A 
ATOM     86  CH2 TRP     9       4.065 -17.031   6.920  1.00  0.00     0.002 A 
ENDBRANCH  77  78
ENDBRANCH  76  77
BRANCH  76  87
ATOM     87  C   TRP     9       9.584 -19.164   9.856  1.00  0.00     0.275 C 
ATOM     88  O   TRP     9       8.715 -19.851   9.328  1.00  0.00    -0.268 OA
ATOM     89  N   GLY    10      10.678 -19.686  10.410  1.00  0.00    -0.226 NA
BRANCH  89  90
ATOM     90  CA  GLY    10      10.950 -21.146  10.514  1.00  0.00     0.218 C 
BRANCH  90  91
ATOM     91  C   GLY    10      12.213 -21.657   9.803  1.00  0.00     0.277 C 
ATOM     92  N   CYS    11      12.097 -22.860   9.243  1.00  0.00    -0.228 NA
ATOM     93  O   GLY    10      13.277 -21.058   9.914  1.00  0.00    -0.268 OA
BRANCH  92  94
ATOM     94  CA  CYS    11      13.139 -23.582   8.479  1.00  0.00     0.198 C 
BRANCH  94  95
ATOM     95  C   CYS    11      12.928 -23.284   6.982  1.00  0.00     0.275 C 
ATOM     96  O   CYS    11      12.093 -23.930   6.358  1.00  0.00    -0.268 OA
ATOM     97  N   GLY    12      13.813 -22.474   6.419  1.00  0.00    -0.225 NA
BRANCH  97  98
ATOM     98  CA  GLY    12      13.766 -22.099   4.997  1.00  0.00     0.226 C 
BRANCH  98  99
ATOM     99  C   GLY    12      12.736 -20.958   4.838  1.00  0.00     0.211 C 
ATOM    100  O1  GLY    12      12.918 -19.931   5.540  1.00  0.00    -0.646 OA
ATOM    101  O2  GLY    12      11.822 -21.113   4.007  1.00  0.00    -0.646 OA
ENDBRANCH  98  99
ENDBRANCH  97  98
ENDBRANCH  94  95
BRANCH  94 102
ATOM    102  CB  CYS    11      12.951 -25.090   8.629  1.00  0.00     0.103 C 
ATOM    103  SG  CYS    11      12.075 -25.648  10.141  1.00  0.00    -0.080 SA
ENDBRANCH  94 102
ENDBRANCH  92  94
ENDBRANCH  90  91
ENDBRANCH  89  90
ENDBRANCH  76  87
ENDBRANCH  74  76
ENDBRANCH  65  73
ENDBRANCH  63  65
ENDBRANCH  61  62
BRANCH  61 104
ATOM    104  CB  ASN     7      14.837 -13.975   6.756  1.00  0.00     0.126 C 
BRANCH 104 105
ATOM    105  CG  ASN     7      15.777 -15.063   6.203  1.00  0.00     0.276 C 
ATOM    106  ND2 ASN     7      16.636 -14.673   5.290  1.00  0.00    -0.107 N 
ATOM    107  OD1 ASN     7      15.676 -16.261   6.433  1.00  0.00    -0.269 OA
ENDBRANCH 104 105
ENDBRANCH  61 104
ENDBRANCH  59  61
ENDBRANCH   1  58
TORSDOF 42
ENDMDL
MODEL 7
REMARK VINA RESULT:      -3.8      4.057      9.075
REMARK WARNING: 32 MAX_TORS EXCEEDED!!!
REMARK  42 active torsions:
REMARK  status: ('A' for Active; 'I' for Inactive)
REMARK    1  A    between atoms: CA_2  and  CB_3 
REMARK    2  A    between atoms: CA_2  and  C_11 
REMARK    3  A    between atoms: CB_3  and  CG_4 
REMARK       I    between atoms: C_11  and  N_13 
REMARK    4  A    between atoms: N_13  and  CA_14 
REMARK    5  A    between atoms: CA_14  and  CB_15 
REMARK    6  A    between atoms: CA_14  and  C_19 
REMARK    7  A    between atoms: CB_15  and  CG_16 
REMARK       I    between atoms: C_19  and  N_21 
REMARK    8  A    between atoms: CA_22  and  C_26 
REMARK       I    between atoms: C_26  and  N_28 
REMARK    9  A    between atoms: N_28  and  CA_29 
REMARK   10  A    between atoms: CA_29  and  C_35 
REMARK   11  A    between atoms: CA_29  and  CB_30 
REMARK   12  A    between atoms: CB_30  and  CG_31 
REMARK   13  A    between atoms: CG_31  and  CD_32 
REMARK       I    between atoms: C_35  and  N_37 
REMARK   14  A    between atoms: N_37  and  CA_38 
REMARK   15  A    between atoms: CA_38  and  CB_39 
REMARK   16  A    between atoms: CA_38  and  C_47 
REMARK   17  A    between atoms: CB_39  and  CG_40 
REMARK       I    between atoms: C_47  and  N_49 
REMARK   18  A    between atoms: N_49  and  CA_50 
REMARK   19  A    between atoms: CA_50  and  CB_51 
REMARK   20  A    between atoms: CA_50  and  C_58 
REMARK   21  A    between atoms: CB_51  and  CG_52 
REMARK   22  A    between atoms: CG_52  and  CD_53 
REMARK   23  A    between atoms: CD_53  and  NE_54 
REMARK       I    between atoms: C_58  and  N_60 
REMARK   24  A    between atoms: N_60  and  CA_61 
REMARK   25  A    between atoms: CA_61  and  C_66 
REMARK   26  A    between atoms: CA_61  and  CB_62 
REMARK   27  A    between atoms: CB_62  and  CG_63 
REMARK       I    between atoms: C_66  and  N_68 
REMARK   28  A    between atoms: N_68  and  CA_69 
REMARK   29  A    between atoms: CA_69  and  CB_70 
REMARK   30  A    between atoms: CA_69  and  C_77 
REMARK   31  A    between atoms: CB_70  and  CG_71 
REMARK       I    between atoms: C_77  and  N_79 
REMARK   32  A    between atoms: N_79  and  CA_80 
REMARK   33  A    between atoms: CA_80  and  CB_81 
REMARK   34  A    between atoms: CA_80  and  C_91 
REMARK   35  A    between atoms: CB_81  and  CG_82 
REMARK       I    between atoms: C_91  and  N_93 
REMARK   36  A    between atoms: N_93  and  CA_94 
REMARK   37  A    between atoms: CA_94  and  C_95 
REMARK       I    between atoms: C_95  and  N_97 
REMARK   38  A    between atoms: N_97  and  CA_98 
REMARK   39  A    between atoms: CA_98  and  C_101 
REMARK   40  A    between atoms: CA_98  and  CB_99 
REMARK       I    between atoms: C_101  and  N_103 
REMARK   41  A    between atoms: N_103  and  CA_104 
REMARK   42  A    between atoms: CA_104  and  C_105 
ROOT
ATOM      1  CA  ARG     6      11.390   7.514   6.309  1.00  0.00     0.186 C 
ENDROOT
BRANCH   1   2
ATOM      2  N   ARG     6      10.507   6.425   6.787  1.00  0.00    -0.229 NA
ATOM      3  C   TYR     5      10.448   6.062   8.075  1.00  0.00     0.275 C 
ATOM      4  O   TYR     5      11.103   6.629   8.950  1.00  0.00    -0.268 OA
BRANCH   3   5
ATOM      5  CA  TYR     5       9.434   4.968   8.449  1.00  0.00     0.191 C 
BRANCH   5   6
ATOM      6  N   TYR     5       8.158   5.503   8.991  1.00  0.00    -0.228 NA
ATOM      7  C   GLU     4       7.239   6.119   8.230  1.00  0.00     0.274 C 
ATOM      8  O   GLU     4       7.315   6.165   7.009  1.00  0.00    -0.268 OA
BRANCH   7   9
ATOM      9  CA  GLU     4       5.914   6.483   8.931  1.00  0.00     0.187 C 
BRANCH   9  10
ATOM     10  CB  GLU     4       5.276   5.220   9.530  1.00  0.00     0.045 C 
BRANCH  10  11
ATOM     11  CG  GLU     4       4.522   4.301   8.543  1.00  0.00     0.100 C 
BRANCH  11  12
ATOM     12  CD  GLU     4       3.739   3.170   9.209  1.00  0.00     0.185 C 
ATOM     13  OE1 GLU     4       4.340   2.080   9.391  1.00  0.00    -0.647 OA
ATOM     14  OE2 GLU     4       2.497   3.210   9.101  1.00  0.00    -0.647 OA
ENDBRANCH  11  12
ENDBRANCH  10  11
ENDBRANCH   9  10
BRANCH   9  15
ATOM     15  N   GLU     4       4.936   7.123   8.030  1.00  0.00    -0.229 NA
ATOM     16  C   PRO     3       4.000   8.014   8.336  1.00  0.00     0.272 C 
ATOM     17  O   PRO     3       4.043   8.722   9.344  1.00  0.00    -0.269 OA
BRANCH  16  18
ATOM     18  CA  PRO     3       3.138   8.485   7.163  1.00  0.00     0.165 C 
ATOM     19  N   PRO     3       1.679   8.429   7.402  1.00  0.00    -0.312 N 
ATOM     20  CD  PRO     3       1.033   9.635   6.825  1.00  0.00     0.105 C 
ATOM     21  C   ASP     2       1.043   7.364   7.924  1.00  0.00     0.257 C 
ATOM     22  CG  PRO     3       2.153  10.322   6.028  1.00  0.00     0.027 C 
ATOM     23  CB  PRO     3       3.423   9.935   6.780  1.00  0.00     0.034 C 
ATOM     24  O   ASP     2       1.630   6.277   8.036  1.00  0.00    -0.270 OA
BRANCH  21  25
ATOM     25  CA  ASP     2      -0.497   7.385   8.049  1.00  0.00     0.195 C 
BRANCH  25  26
ATOM     26  CB  ASP     2      -1.071   7.861   9.408  1.00  0.00     0.132 C 
BRANCH  26  27
ATOM     27  CG  ASP     2      -2.212   8.872   9.185  1.00  0.00     0.188 C 
ATOM     28  OD2 ASP     2      -3.311   8.574   9.719  1.00  0.00    -0.647 OA
ATOM     29  OD1 ASP     2      -2.182   9.530   8.116  1.00  0.00    -0.647 OA
ENDBRANCH  26  27
ENDBRANCH  25  26
BRANCH  25  30
ATOM     30  N   ASP     2      -1.082   6.040   7.910  1.00  0.00    -0.228 NA
ATOM     31  C   TYR     1      -2.239   5.740   7.370  1.00  0.00     0.289 C 
ATOM     32  O   TYR     1      -3.007   6.486   6.752  1.00  0.00    -0.268 OA
BRANCH  31  33
ATOM     33  CA  TYR     1      -2.614   4.279   7.596  1.00  0.00     0.385 C 
ATOM     34  N   TYR     1      -1.730   3.744   8.645  1.00  0.00     0.626 N 
BRANCH  33  35
ATOM     35  CB  TYR     1      -4.086   4.243   7.999  1.00  0.00     0.075 C 
BRANCH  35  36
ATOM     36  CG  TYR     1      -4.944   3.377   7.064  1.00  0.00    -0.019 A 
ATOM     37  CD2 TYR     1      -5.964   2.577   7.555  1.00  0.00    -0.002 A 
ATOM     38  CE2 TYR     1      -6.810   1.911   6.680  1.00  0.00     0.027 A 
ATOM     39  CZ  TYR     1      -6.617   2.053   5.307  1.00  0.00     0.131 A 
ATOM     40  CE1 TYR     1      -5.572   2.820   4.825  1.00  0.00     0.027 A 
ATOM     41  OH  TYR     1      -7.531   1.573   4.440  1.00  0.00    -0.190 OA
ATOM     42  CD1 TYR     1      -4.726   3.486   5.699  1.00  0.00    -0.002 A 
ENDBRANCH  35  36
ENDBRANCH  33  35
ENDBRANCH  31  33
ENDBRANCH  25  30
ENDBRANCH  21  25
ENDBRANCH  16  18
ENDBRANCH   9  15
ENDBRANCH   7   9
ENDBRANCH   5   6
BRANCH   5  43
ATOM     43  CB  TYR     5       9.154   4.046   7.251  1.00  0.00     0.060 C 
BRANCH  43  44
ATOM     44  CG  TYR     5       9.293   2.558   7.613  1.00  0.00    -0.020 A 
ATOM     45  CD2 TYR     5      10.023   2.168   8.729  1.00  0.00    -0.002 A 
ATOM     46  CE2 TYR     5      10.137   0.820   9.053  1.00  0.00     0.027 A 
ATOM     47  CZ  TYR     5       9.523  -0.138   8.262  1.00  0.00     0.131 A 
ATOM     48  CE1 TYR     5       8.776   0.245   7.154  1.00  0.00     0.027 A 
ATOM     49  OH  TYR     5       9.743  -1.451   8.488  1.00  0.00    -0.190 OA
ATOM     50  CD1 TYR     5       8.670   1.597   6.826  1.00  0.00    -0.002 A 
ENDBRANCH  43  44
ENDBRANCH   5  43
ENDBRANCH   3   5
ENDBRANCH   1   2
BRANCH   1  51
ATOM     51  CB  ARG     6      11.097   8.854   6.977  1.00  0.00     0.036 C 
BRANCH  51  52
ATOM     52  CG  ARG     6       9.630   9.280   6.881  1.00  0.00     0.029 C 
BRANCH  52  53
ATOM     53  CD  ARG     6       9.033   9.444   8.276  1.00  0.00     0.145 C 
BRANCH  53  54
ATOM     54  NE  ARG     6       7.668   9.993   8.205  1.00  0.00    -0.083 NA
ATOM     55  CZ  ARG     6       7.242  11.110   8.823  1.00  0.00     0.782 C 
ATOM     56  NH2 ARG     6       5.959  11.473   8.759  1.00  0.00     0.063 N 
ATOM     57  NH1 ARG     6       8.076  11.819   9.577  1.00  0.00     0.063 N 
ENDBRANCH  53  54
ENDBRANCH  52  53
ENDBRANCH  51  52
ENDBRANCH   1  51
BRANCH   1  58
ATOM     58  C   ARG     6      12.875   7.216   6.556  1.00  0.00     0.274 C 
ATOM     59  N   ASN     7      13.417   6.292   5.768  1.00  0.00    -0.228 NA
ATOM     60  O   ARG     6      13.470   7.825   7.446  1.00  0.00    -0.268 OA
BRANCH  59  61
ATOM     61  CA  ASN     7      14.852   5.942   5.791  1.00  0.00     0.196 C 
BRANCH  61  62
ATOM     62  C   ASN     7      15.190   5.010   6.971  1.00  0.00     0.275 C 
ATOM     63  N   PHE     8      15.238   3.695   6.712  1.00  0.00    -0.228 NA
ATOM     64  O   ASN     7      15.755   5.507   7.926  1.00  0.00    -0.268 OA
BRANCH  63  65
ATOM     65  CA  PHE     8      15.628   2.651   7.691  1.00  0.00     0.191 C 
BRANCH  65  66
ATOM     66  CB  PHE     8      14.348   2.050   8.288  1.00  0.00     0.060 C 
BRANCH  66  67
ATOM     67  CG  PHE     8      13.426   1.367   7.260  1.00  0.00    -0.020 A 
ATOM     68  CD1 PHE     8      13.286  -0.014   7.265  1.00  0.00    -0.004 A 
ATOM     69  CE1 PHE     8      12.533  -0.639   6.271  1.00  0.00    -0.000 A 
ATOM     70  CZ  PHE     8      11.916   0.125   5.293  1.00  0.00    -0.000 A 
ATOM     71  CE2 PHE     8      12.044   1.510   5.294  1.00  0.00    -0.000 A 
ATOM     72  CD2 PHE     8      12.797   2.135   6.288  1.00  0.00    -0.004 A 
ENDBRANCH  66  67
ENDBRANCH  65  66
BRANCH  65  73
ATOM     73  C   PHE     8      16.569   1.557   7.138  1.00  0.00     0.275 C 
ATOM     74  N   TRP     9      16.892   1.648   5.846  1.00  0.00    -0.228 NA
ATOM     75  O   PHE     8      16.797   0.531   7.784  1.00  0.00    -0.268 OA
BRANCH  74  76
ATOM     76  CA  TRP     9      17.881   0.740   5.216  1.00  0.00     0.191 C 
BRANCH  76  77
ATOM     77  CB  TRP     9      17.376   0.352   3.816  1.00  0.00     0.062 C 
BRANCH  77  78
ATOM     78  CG  TRP     9      16.967  -1.116   3.709  1.00  0.00     0.001 A 
ATOM     79  CD1 TRP     9      15.752  -1.607   3.936  1.00  0.00     0.095 A 
ATOM     80  NE1 TRP     9      15.815  -2.928   4.043  1.00  0.00    -0.244 NA
ATOM     81  CE2 TRP     9      17.066  -3.328   3.868  1.00  0.00     0.081 A 
ATOM     82  CD2 TRP     9      17.842  -2.197   3.665  1.00  0.00     0.015 A 
ATOM     83  CZ2 TRP     9      17.683  -4.574   3.965  1.00  0.00     0.019 A 
ATOM     84  CE3 TRP     9      19.222  -2.290   3.571  1.00  0.00     0.001 A 
ATOM     85  CZ3 TRP     9      19.841  -3.531   3.680  1.00  0.00     0.000 A 
ATOM     86  CH2 TRP     9      19.063  -4.673   3.858  1.00  0.00     0.002 A 
ENDBRANCH  77  78
ENDBRANCH  76  77
BRANCH  76  87
ATOM     87  C   TRP     9      19.322   1.295   5.168  1.00  0.00     0.275 C 
ATOM     88  O   TRP     9      19.809   1.695   4.114  1.00  0.00    -0.268 OA
ATOM     89  N   GLY    10      19.950   1.404   6.338  1.00  0.00    -0.226 NA
BRANCH  89  90
ATOM     90  CA  GLY    10      21.323   1.954   6.505  1.00  0.00     0.218 C 
BRANCH  90  91
ATOM     91  C   GLY    10      21.420   3.408   6.997  1.00  0.00     0.277 C 
ATOM     92  N   CYS    11      21.122   4.332   6.084  1.00  0.00    -0.228 NA
ATOM     93  O   GLY    10      21.905   3.665   8.092  1.00  0.00    -0.268 OA
BRANCH  92  94
ATOM     94  CA  CYS    11      21.110   5.798   6.285  1.00  0.00     0.198 C 
BRANCH  94  95
ATOM     95  C   CYS    11      19.733   6.191   6.856  1.00  0.00     0.275 C 
ATOM     96  O   CYS    11      18.751   5.522   6.556  1.00  0.00    -0.268 OA
ATOM     97  N   GLY    12      19.674   7.357   7.483  1.00  0.00    -0.225 NA
BRANCH  97  98
ATOM     98  CA  GLY    12      18.436   7.889   8.073  1.00  0.00     0.226 C 
BRANCH  98  99
ATOM     99  C   GLY    12      18.492   9.432   7.990  1.00  0.00     0.211 C 
ATOM    100  O1  GLY    12      19.219  10.016   8.833  1.00  0.00    -0.646 OA
ATOM    101  O2  GLY    12      17.849   9.988   7.081  1.00  0.00    -0.646 OA
ENDBRANCH  98  99
ENDBRANCH  97  98
ENDBRANCH  94  95
BRANCH  94 102
ATOM    102  CB  CYS    11      21.218   6.514   4.941  1.00  0.00     0.103 C 
ATOM    103  SG  CYS    11      20.648   5.571   3.475  1.00  0.00    -0.080 SA
ENDBRANCH  94 102
ENDBRANCH  92  94
ENDBRANCH  90  91
ENDBRANCH  89  90
ENDBRANCH  76  87
ENDBRANCH  74  76
ENDBRANCH  65  73
ENDBRANCH  63  65
ENDBRANCH  61  62
BRANCH  61 104
ATOM    104  CB  ASN     7      15.731   7.199   5.820  1.00  0.00     0.126 C 
BRANCH 104 105
ATOM    105  CG  ASN     7      16.337   7.596   4.461  1.00  0.00     0.276 C 
ATOM    106  ND2 ASN     7      17.078   6.686   3.872  1.00  0.00    -0.107 N 
ATOM    107  OD1 ASN     7      16.308   8.722   3.981  1.00  0.00    -0.269 OA
ENDBRANCH 104 105
ENDBRANCH  61 104
ENDBRANCH  59  61
ENDBRANCH   1  58
TORSDOF 42
ENDMDL
MODEL 8
REMARK VINA RESULT:      -3.8      2.291      3.135
REMARK WARNING: 32 MAX_TORS EXCEEDED!!!
REMARK  42 active torsions:
REMARK  status: ('A' for Active; 'I' for Inactive)
REMARK    1  A    between atoms: CA_2  and  CB_3 
REMARK    2  A    between atoms: CA_2  and  C_11 
REMARK    3  A    between atoms: CB_3  and  CG_4 
REMARK       I    between atoms: C_11  and  N_13 
REMARK    4  A    between atoms: N_13  and  CA_14 
REMARK    5  A    between atoms: CA_14  and  CB_15 
REMARK    6  A    between atoms: CA_14  and  C_19 
REMARK    7  A    between atoms: CB_15  and  CG_16 
REMARK       I    between atoms: C_19  and  N_21 
REMARK    8  A    between atoms: CA_22  and  C_26 
REMARK       I    between atoms: C_26  and  N_28 
REMARK    9  A    between atoms: N_28  and  CA_29 
REMARK   10  A    between atoms: CA_29  and  C_35 
REMARK   11  A    between atoms: CA_29  and  CB_30 
REMARK   12  A    between atoms: CB_30  and  CG_31 
REMARK   13  A    between atoms: CG_31  and  CD_32 
REMARK       I    between atoms: C_35  and  N_37 
REMARK   14  A    between atoms: N_37  and  CA_38 
REMARK   15  A    between atoms: CA_38  and  CB_39 
REMARK   16  A    between atoms: CA_38  and  C_47 
REMARK   17  A    between atoms: CB_39  and  CG_40 
REMARK       I    between atoms: C_47  and  N_49 
REMARK   18  A    between atoms: N_49  and  CA_50 
REMARK   19  A    between atoms: CA_50  and  CB_51 
REMARK   20  A    between atoms: CA_50  and  C_58 
REMARK   21  A    between atoms: CB_51  and  CG_52 
REMARK   22  A    between atoms: CG_52  and  CD_53 
REMARK   23  A    between atoms: CD_53  and  NE_54 
REMARK       I    between atoms: C_58  and  N_60 
REMARK   24  A    between atoms: N_60  and  CA_61 
REMARK   25  A    between atoms: CA_61  and  C_66 
REMARK   26  A    between atoms: CA_61  and  CB_62 
REMARK   27  A    between atoms: CB_62  and  CG_63 
REMARK       I    between atoms: C_66  and  N_68 
REMARK   28  A    between atoms: N_68  and  CA_69 
REMARK   29  A    between atoms: CA_69  and  CB_70 
REMARK   30  A    between atoms: CA_69  and  C_77 
REMARK   31  A    between atoms: CB_70  and  CG_71 
REMARK       I    between atoms: C_77  and  N_79 
REMARK   32  A    between atoms: N_79  and  CA_80 
REMARK   33  A    between atoms: CA_80  and  CB_81 
REMARK   34  A    between atoms: CA_80  and  C_91 
REMARK   35  A    between atoms: CB_81  and  CG_82 
REMARK       I    between atoms: C_91  and  N_93 
REMARK   36  A    between atoms: N_93  and  CA_94 
REMARK   37  A    between atoms: CA_94  and  C_95 
REMARK       I    between atoms: C_95  and  N_97 
REMARK   38  A    between atoms: N_97  and  CA_98 
REMARK   39  A    between atoms: CA_98  and  C_101 
REMARK   40  A    between atoms: CA_98  and  CB_99 
REMARK       I    between atoms: C_101  and  N_103 
REMARK   41  A    between atoms: N_103  and  CA_104 
REMARK   42  A    between atoms: CA_104  and  C_105 
ROOT
ATOM      1  CA  ARG     6      13.972   7.924   6.277  1.00  0.00     0.186 C 
ENDROOT
BRANCH   1   2
ATOM      2  N   ARG     6      12.715   8.527   6.778  1.00  0.00    -0.229 NA
ATOM      3  C   TYR     5      12.223   9.672   6.287  1.00  0.00     0.275 C 
ATOM      4  O   TYR     5      12.767  10.282   5.366  1.00  0.00    -0.268 OA
BRANCH   3   5
ATOM      5  CA  TYR     5      10.872  10.149   6.844  1.00  0.00     0.191 C 
BRANCH   5   6
ATOM      6  N   TYR     5      10.370   9.322   7.972  1.00  0.00    -0.228 NA
ATOM      7  C   GLU     4       9.561   8.263   7.802  1.00  0.00     0.274 C 
ATOM      8  O   GLU     4       9.287   7.812   6.697  1.00  0.00    -0.268 OA
BRANCH   7   9
ATOM      9  CA  GLU     4       9.253   7.437   9.067  1.00  0.00     0.187 C 
BRANCH   9  10
ATOM     10  CB  GLU     4       9.407   5.938   8.762  1.00  0.00     0.045 C 
BRANCH  10  11
ATOM     11  CG  GLU     4       9.520   5.000   9.984  1.00  0.00     0.100 C 
BRANCH  11  12
ATOM     12  CD  GLU     4       9.721   3.527   9.629  1.00  0.00     0.185 C 
ATOM     13  OE1 GLU     4      10.595   3.255   8.765  1.00  0.00    -0.647 OA
ATOM     14  OE2 GLU     4       8.753   2.765   9.828  1.00  0.00    -0.647 OA
ENDBRANCH  11  12
ENDBRANCH  10  11
ENDBRANCH   9  10
BRANCH   9  15
ATOM     15  N   GLU     4       7.897   7.671   9.600  1.00  0.00    -0.229 NA
ATOM     16  C   PRO     3       6.734   7.519   8.979  1.00  0.00     0.272 C 
ATOM     17  O   PRO     3       6.586   6.806   7.985  1.00  0.00    -0.269 OA
BRANCH  16  18
ATOM     18  CA  PRO     3       5.497   7.850   9.816  1.00  0.00     0.165 C 
ATOM     19  N   PRO     3       4.507   8.719   9.146  1.00  0.00    -0.312 N 
ATOM     20  CD  PRO     3       3.134   8.245   9.459  1.00  0.00     0.105 C 
ATOM     21  C   ASP     2       4.822   9.851   8.490  1.00  0.00     0.257 C 
ATOM     22  CG  PRO     3       3.341   7.170  10.537  1.00  0.00     0.027 C 
ATOM     23  CB  PRO     3       4.720   6.600  10.221  1.00  0.00     0.034 C 
ATOM     24  O   ASP     2       5.956  10.342   8.597  1.00  0.00    -0.270 OA
BRANCH  21  25
ATOM     25  CA  ASP     2       3.694  10.727   7.900  1.00  0.00     0.195 C 
BRANCH  25  26
ATOM     26  CB  ASP     2       3.476  10.630   6.368  1.00  0.00     0.132 C 
BRANCH  26  27
ATOM     27  CG  ASP     2       2.226   9.787   6.055  1.00  0.00     0.188 C 
ATOM     28  OD2 ASP     2       1.321   9.815   6.928  1.00  0.00    -0.647 OA
ATOM     29  OD1 ASP     2       2.399   8.761   5.350  1.00  0.00    -0.647 OA
ENDBRANCH  26  27
ENDBRANCH  25  26
BRANCH  25  30
ATOM     30  N   ASP     2       3.950  12.165   8.094  1.00  0.00    -0.228 NA
ATOM     31  C   TYR     1       3.061  13.089   8.376  1.00  0.00     0.289 C 
ATOM     32  O   TYR     1       1.871  12.936   8.667  1.00  0.00    -0.268 OA
BRANCH  31  33
ATOM     33  CA  TYR     1       3.651  14.493   8.289  1.00  0.00     0.385 C 
ATOM     34  N   TYR     1       4.899  14.507   9.070  1.00  0.00     0.626 N 
BRANCH  33  35
ATOM     35  CB  TYR     1       3.883  14.799   6.811  1.00  0.00     0.075 C 
BRANCH  35  36
ATOM     36  CG  TYR     1       2.750  15.625   6.183  1.00  0.00    -0.019 A 
ATOM     37  CD2 TYR     1       1.705  16.118   6.950  1.00  0.00    -0.002 A 
ATOM     38  CE2 TYR     1       0.770  16.973   6.386  1.00  0.00     0.027 A 
ATOM     39  CZ  TYR     1       0.891  17.322   5.042  1.00  0.00     0.131 A 
ATOM     40  CE1 TYR     1       1.912  16.794   4.273  1.00  0.00     0.027 A 
ATOM     41  OH  TYR     1       0.111  18.291   4.520  1.00  0.00    -0.190 OA
ATOM     42  CD1 TYR     1       2.847  15.939   4.836  1.00  0.00    -0.002 A 
ENDBRANCH  35  36
ENDBRANCH  33  35
ENDBRANCH  31  33
ENDBRANCH  25  30
ENDBRANCH  21  25
ENDBRANCH  16  18
ENDBRANCH   9  15
ENDBRANCH   7   9
ENDBRANCH   5   6
BRANCH   5  43
ATOM     43  CB  TYR     5      10.943  11.627   7.265  1.00  0.00     0.060 C 
BRANCH  43  44
ATOM     44  CG  TYR     5       9.825  12.469   6.627  1.00  0.00    -0.020 A 
ATOM     45  CD2 TYR     5      10.089  13.279   5.529  1.00  0.00    -0.002 A 
ATOM     46  CE2 TYR     5       9.069  14.032   4.954  1.00  0.00     0.027 A 
ATOM     47  CZ  TYR     5       7.787  13.975   5.476  1.00  0.00     0.131 A 
ATOM     48  CE1 TYR     5       7.510  13.153   6.564  1.00  0.00     0.027 A 
ATOM     49  OH  TYR     5       6.826  14.805   5.014  1.00  0.00    -0.190 OA
ATOM     50  CD1 TYR     5       8.536  12.406   7.144  1.00  0.00    -0.002 A 
ENDBRANCH  43  44
ENDBRANCH   5  43
ENDBRANCH   3   5
ENDBRANCH   1   2
BRANCH   1  51
ATOM     51  CB  ARG     6      14.808   7.287   7.383  1.00  0.00     0.036 C 
BRANCH  51  52
ATOM     52  CG  ARG     6      16.103   8.044   7.687  1.00  0.00     0.029 C 
BRANCH  52  53
ATOM     53  CD  ARG     6      16.456   8.979   6.534  1.00  0.00     0.145 C 
BRANCH  53  54
ATOM     54  NE  ARG     6      17.459   8.368   5.646  1.00  0.00    -0.083 NA
ATOM     55  CZ  ARG     6      18.780   8.630   5.663  1.00  0.00     0.782 C 
ATOM     56  NH2 ARG     6      19.591   8.081   4.756  1.00  0.00     0.063 N 
ATOM     57  NH1 ARG     6      19.279   9.505   6.528  1.00  0.00     0.063 N 
ENDBRANCH  53  54
ENDBRANCH  52  53
ENDBRANCH  51  52
ENDBRANCH   1  51
BRANCH   1  58
ATOM     58  C   ARG     6      13.722   6.829   5.232  1.00  0.00     0.274 C 
ATOM     59  N   ASN     7      13.981   5.585   5.626  1.00  0.00    -0.228 NA
ATOM     60  O   ARG     6      13.311   7.147   4.115  1.00  0.00    -0.268 OA
BRANCH  59  61
ATOM     61  CA  ASN     7      13.709   4.394   4.794  1.00  0.00     0.196 C 
BRANCH  61  62
ATOM     62  C   ASN     7      13.358   3.167   5.659  1.00  0.00     0.275 C 
ATOM     63  N   PHE     8      13.363   1.973   5.048  1.00  0.00    -0.228 NA
ATOM     64  O   ASN     7      13.482   3.284   6.862  1.00  0.00    -0.268 OA
BRANCH  63  65
ATOM     65  CA  PHE     8      13.137   0.673   5.726  1.00  0.00     0.191 C 
BRANCH  65  66
ATOM     66  CB  PHE     8      12.071  -0.101   4.938  1.00  0.00     0.060 C 
BRANCH  66  67
ATOM     67  CG  PHE     8      10.774  -0.374   5.723  1.00  0.00    -0.020 A 
ATOM     68  CD1 PHE     8      10.351   0.521   6.695  1.00  0.00    -0.004 A 
ATOM     69  CE1 PHE     8       9.234   0.223   7.475  1.00  0.00    -0.000 A 
ATOM     70  CZ  PHE     8       8.543  -0.960   7.264  1.00  0.00    -0.000 A 
ATOM     71  CE2 PHE     8       8.957  -1.852   6.280  1.00  0.00    -0.000 A 
ATOM     72  CD2 PHE     8      10.075  -1.554   5.501  1.00  0.00    -0.004 A 
ENDBRANCH  66  67
ENDBRANCH  65  66
BRANCH  65  73
ATOM     73  C   PHE     8      14.409  -0.176   5.950  1.00  0.00     0.275 C 
ATOM     74  N   TRP     9      14.223  -1.410   6.420  1.00  0.00    -0.228 NA
ATOM     75  O   PHE     8      15.528   0.344   5.939  1.00  0.00    -0.268 OA
BRANCH  74  76
ATOM     76  CA  TRP     9      15.342  -2.374   6.566  1.00  0.00     0.191 C 
BRANCH  76  77
ATOM     77  CB  TRP     9      15.335  -2.930   7.999  1.00  0.00     0.062 C 
BRANCH  77  78
ATOM     78  CG  TRP     9      16.185  -2.108   8.968  1.00  0.00     0.001 A 
ATOM     79  CD1 TRP     9      15.758  -1.534  10.088  1.00  0.00     0.095 A 
ATOM     80  NE1 TRP     9      16.665  -0.668  10.522  1.00  0.00    -0.244 NA
ATOM     81  CE2 TRP     9      17.709  -0.675   9.707  1.00  0.00     0.081 A 
ATOM     82  CD2 TRP     9      17.439  -1.574   8.688  1.00  0.00     0.015 A 
ATOM     83  CZ2 TRP     9      18.873   0.092   9.653  1.00  0.00     0.019 A 
ATOM     84  CE3 TRP     9      18.303  -1.708   7.611  1.00  0.00     0.001 A 
ATOM     85  CZ3 TRP     9      19.457  -0.935   7.549  1.00  0.00     0.000 A 
ATOM     86  CH2 TRP     9      19.746  -0.049   8.585  1.00  0.00     0.002 A 
ENDBRANCH  77  78
ENDBRANCH  76  77
BRANCH  76  87
ATOM     87  C   TRP     9      15.353  -3.508   5.515  1.00  0.00     0.275 C 
ATOM     88  O   TRP     9      14.797  -3.366   4.430  1.00  0.00    -0.268 OA
ATOM     89  N   GLY    10      16.076  -4.585   5.819  1.00  0.00    -0.226 NA
BRANCH  89  90
ATOM     90  CA  GLY    10      16.246  -5.761   4.923  1.00  0.00     0.218 C 
BRANCH  90  91
ATOM     91  C   GLY    10      16.524  -7.108   5.609  1.00  0.00     0.277 C 
ATOM     92  N   CYS    11      17.597  -7.127   6.398  1.00  0.00    -0.228 NA
ATOM     93  O   GLY    10      15.891  -8.110   5.296  1.00  0.00    -0.268 OA
BRANCH  92  94
ATOM     94  CA  CYS    11      18.085  -8.275   7.195  1.00  0.00     0.198 C 
BRANCH  94  95
ATOM     95  C   CYS    11      18.806  -7.720   8.440  1.00  0.00     0.275 C 
ATOM     96  O   CYS    11      18.525  -8.175   9.543  1.00  0.00    -0.268 OA
ATOM     97  N   GLY    12      19.548  -6.639   8.249  1.00  0.00    -0.225 NA
BRANCH  97  98
ATOM     98  CA  GLY    12      20.289  -5.974   9.332  1.00  0.00     0.226 C 
BRANCH  98  99
ATOM     99  C   GLY    12      19.559  -4.653   9.670  1.00  0.00     0.211 C 
ATOM    100  O1  GLY    12      18.319  -4.729   9.867  1.00  0.00    -0.646 OA
ATOM    101  O2  GLY    12      20.244  -3.618   9.759  1.00  0.00    -0.646 OA
ENDBRANCH  98  99
ENDBRANCH  97  98
ENDBRANCH  94  95
BRANCH  94 102
ATOM    102  CB  CYS    11      19.146  -9.045   6.413  1.00  0.00     0.103 C 
ATOM    103  SG  CYS    11      18.599 -10.616   5.641  1.00  0.00    -0.080 SA
ENDBRANCH  94 102
ENDBRANCH  92  94
ENDBRANCH  90  91
ENDBRANCH  89  90
ENDBRANCH  76  87
ENDBRANCH  74  76
ENDBRANCH  65  73
ENDBRANCH  63  65
ENDBRANCH  61  62
BRANCH  61 104
ATOM    104  CB  ASN     7      14.887   4.086   3.862  1.00  0.00     0.126 C 
BRANCH 104 105
ATOM    105  CG  ASN     7      16.278   4.228   4.507  1.00  0.00     0.276 C 
ATOM    106  ND2 ASN     7      17.070   5.132   3.978  1.00  0.00    -0.107 N 
ATOM    107  OD1 ASN     7      16.741   3.472   5.352  1.00  0.00    -0.269 OA
ENDBRANCH 104 105
ENDBRANCH  61 104
ENDBRANCH  59  61
ENDBRANCH   1  58
TORSDOF 42
ENDMDL
MODEL 9
REMARK VINA RESULT:      -3.6      8.148     16.875
REMARK WARNING: 32 MAX_TORS EXCEEDED!!!
REMARK  42 active torsions:
REMARK  status: ('A' for Active; 'I' for Inactive)
REMARK    1  A    between atoms: CA_2  and  CB_3 
REMARK    2  A    between atoms: CA_2  and  C_11 
REMARK    3  A    between atoms: CB_3  and  CG_4 
REMARK       I    between atoms: C_11  and  N_13 
REMARK    4  A    between atoms: N_13  and  CA_14 
REMARK    5  A    between atoms: CA_14  and  CB_15 
REMARK    6  A    between atoms: CA_14  and  C_19 
REMARK    7  A    between atoms: CB_15  and  CG_16 
REMARK       I    between atoms: C_19  and  N_21 
REMARK    8  A    between atoms: CA_22  and  C_26 
REMARK       I    between atoms: C_26  and  N_28 
REMARK    9  A    between atoms: N_28  and  CA_29 
REMARK   10  A    between atoms: CA_29  and  C_35 
REMARK   11  A    between atoms: CA_29  and  CB_30 
REMARK   12  A    between atoms: CB_30  and  CG_31 
REMARK   13  A    between atoms: CG_31  and  CD_32 
REMARK       I    between atoms: C_35  and  N_37 
REMARK   14  A    between atoms: N_37  and  CA_38 
REMARK   15  A    between atoms: CA_38  and  CB_39 
REMARK   16  A    between atoms: CA_38  and  C_47 
REMARK   17  A    between atoms: CB_39  and  CG_40 
REMARK       I    between atoms: C_47  and  N_49 
REMARK   18  A    between atoms: N_49  and  CA_50 
REMARK   19  A    between atoms: CA_50  and  CB_51 
REMARK   20  A    between atoms: CA_50  and  C_58 
REMARK   21  A    between atoms: CB_51  and  CG_52 
REMARK   22  A    between atoms: CG_52  and  CD_53 
REMARK   23  A    between atoms: CD_53  and  NE_54 
REMARK       I    between atoms: C_58  and  N_60 
REMARK   24  A    between atoms: N_60  and  CA_61 
REMARK   25  A    between atoms: CA_61  and  C_66 
REMARK   26  A    between atoms: CA_61  and  CB_62 
REMARK   27  A    between atoms: CB_62  and  CG_63 
REMARK       I    between atoms: C_66  and  N_68 
REMARK   28  A    between atoms: N_68  and  CA_69 
REMARK   29  A    between atoms: CA_69  and  CB_70 
REMARK   30  A    between atoms: CA_69  and  C_77 
REMARK   31  A    between atoms: CB_70  and  CG_71 
REMARK       I    between atoms: C_77  and  N_79 
REMARK   32  A    between atoms: N_79  and  CA_80 
REMARK   33  A    between atoms: CA_80  and  CB_81 
REMARK   34  A    between atoms: CA_80  and  C_91 
REMARK   35  A    between atoms: CB_81  and  CG_82 
REMARK       I    between atoms: C_91  and  N_93 
REMARK   36  A    between atoms: N_93  and  CA_94 
REMARK   37  A    between atoms: CA_94  and  C_95 
REMARK       I    between atoms: C_95  and  N_97 
REMARK   38  A    between atoms: N_97  and  CA_98 
REMARK   39  A    between atoms: CA_98  and  C_101 
REMARK   40  A    between atoms: CA_98  and  CB_99 
REMARK       I    between atoms: C_101  and  N_103 
REMARK   41  A    between atoms: N_103  and  CA_104 
REMARK   42  A    between atoms: CA_104  and  C_105 
ROOT
ATOM      1  CA  ARG     6      13.902  -9.247   5.474  1.00  0.00     0.186 C 
ENDROOT
BRANCH   1   2
ATOM      2  N   ARG     6      14.505  -8.654   6.690  1.00  0.00    -0.229 NA
ATOM      3  C   TYR     5      13.843  -8.569   7.851  1.00  0.00     0.275 C 
ATOM      4  O   TYR     5      12.700  -9.005   7.991  1.00  0.00    -0.268 OA
BRANCH   3   5
ATOM      5  CA  TYR     5      14.610  -7.999   9.055  1.00  0.00     0.191 C 
BRANCH   5   6
ATOM      6  N   TYR     5      15.094  -6.610   8.847  1.00  0.00    -0.228 NA
ATOM      7  C   GLU     4      16.388  -6.305   8.653  1.00  0.00     0.274 C 
ATOM      8  O   GLU     4      17.251  -7.159   8.492  1.00  0.00    -0.268 OA
BRANCH   7   9
ATOM      9  CA  GLU     4      16.693  -4.832   8.312  1.00  0.00     0.187 C 
BRANCH   9  10
ATOM     10  CB  GLU     4      16.758  -4.001   9.604  1.00  0.00     0.045 C 
BRANCH  10  11
ATOM     11  CG  GLU     4      18.128  -3.953  10.317  1.00  0.00     0.100 C 
BRANCH  11  12
ATOM     12  CD  GLU     4      19.253  -3.351   9.476  1.00  0.00     0.185 C 
ATOM     13  OE1 GLU     4      19.690  -4.039   8.517  1.00  0.00    -0.647 OA
ATOM     14  OE2 GLU     4      19.970  -2.493  10.031  1.00  0.00    -0.647 OA
ENDBRANCH  11  12
ENDBRANCH  10  11
ENDBRANCH   9  10
BRANCH   9  15
ATOM     15  N   GLU     4      15.694  -4.223   7.412  1.00  0.00    -0.229 NA
ATOM     16  C   PRO     3      15.898  -3.349   6.434  1.00  0.00     0.272 C 
ATOM     17  O   PRO     3      16.989  -3.191   5.884  1.00  0.00    -0.269 OA
BRANCH  16  18
ATOM     18  CA  PRO     3      14.641  -2.908   5.680  1.00  0.00     0.165 C 
ATOM     19  N   PRO     3      14.379  -1.453   5.707  1.00  0.00    -0.312 N 
ATOM     20  CD  PRO     3      13.901  -1.007   4.374  1.00  0.00     0.105 C 
ATOM     21  C   ASP     2      14.422  -0.702   6.823  1.00  0.00     0.257 C 
ATOM     22  CG  PRO     3      13.678  -2.313   3.595  1.00  0.00     0.027 C 
ATOM     23  CB  PRO     3      14.696  -3.275   4.199  1.00  0.00     0.034 C 
ATOM     24  O   ASP     2      14.479  -1.241   7.939  1.00  0.00    -0.270 OA
BRANCH  21  25
ATOM     25  CA  ASP     2      14.045   0.794   6.748  1.00  0.00     0.195 C 
BRANCH  25  26
ATOM     26  CB  ASP     2      14.870   1.759   7.639  1.00  0.00     0.132 C 
BRANCH  26  27
ATOM     27  CG  ASP     2      14.850   3.183   7.052  1.00  0.00     0.188 C 
ATOM     28  OD2 ASP     2      15.886   3.526   6.428  1.00  0.00    -0.647 OA
ATOM     29  OD1 ASP     2      14.166   4.037   7.668  1.00  0.00    -0.647 OA
ENDBRANCH  26  27
ENDBRANCH  25  26
BRANCH  25  30
ATOM     30  N   ASP     2      12.666   1.042   7.203  1.00  0.00    -0.228 NA
ATOM     31  C   TYR     1      11.751   1.752   6.585  1.00  0.00     0.289 C 
ATOM     32  O   TYR     1      11.804   2.239   5.452  1.00  0.00    -0.268 OA
BRANCH  31  33
ATOM     33  CA  TYR     1      10.516   1.971   7.453  1.00  0.00     0.385 C 
ATOM     34  N   TYR     1       9.341   1.527   6.685  1.00  0.00     0.626 N 
BRANCH  33  35
ATOM     35  CB  TYR     1      10.713   1.168   8.737  1.00  0.00     0.075 C 
BRANCH  35  36
ATOM     36  CG  TYR     1       9.539   0.225   9.042  1.00  0.00    -0.019 A 
ATOM     37  CD2 TYR     1       8.344   0.702   9.558  1.00  0.00    -0.002 A 
ATOM     38  CE2 TYR     1       7.256  -0.146   9.697  1.00  0.00     0.027 A 
ATOM     39  CZ  TYR     1       7.382  -1.481   9.318  1.00  0.00     0.131 A 
ATOM     40  CE1 TYR     1       8.589  -1.961   8.842  1.00  0.00     0.027 A 
ATOM     41  OH  TYR     1       6.295  -2.277   9.266  1.00  0.00    -0.190 OA
ATOM     42  CD1 TYR     1       9.677  -1.113   8.703  1.00  0.00    -0.002 A 
ENDBRANCH  35  36
ENDBRANCH  33  35
ENDBRANCH  31  33
ENDBRANCH  25  30
ENDBRANCH  21  25
ENDBRANCH  16  18
ENDBRANCH   9  15
ENDBRANCH   7   9
ENDBRANCH   5   6
BRANCH   5  43
ATOM     43  CB  TYR     5      13.760  -8.075  10.335  1.00  0.00     0.060 C 
BRANCH  43  44
ATOM     44  CG  TYR     5      12.644  -7.016  10.357  1.00  0.00    -0.020 A 
ATOM     45  CD2 TYR     5      12.949  -5.671  10.526  1.00  0.00    -0.002 A 
ATOM     46  CE2 TYR     5      11.934  -4.720  10.538  1.00  0.00     0.027 A 
ATOM     47  CZ  TYR     5      10.613  -5.113  10.381  1.00  0.00     0.131 A 
ATOM     48  CE1 TYR     5      10.301  -6.455  10.194  1.00  0.00     0.027 A 
ATOM     49  OH  TYR     5       9.614  -4.217  10.530  1.00  0.00    -0.190 OA
ATOM     50  CD1 TYR     5      11.321  -7.408  10.192  1.00  0.00    -0.002 A 
ENDBRANCH  43  44
ENDBRANCH   5  43
ENDBRANCH   3   5
ENDBRANCH   1   2
BRANCH   1  51
ATOM     51  CB  ARG     6      14.276  -8.496   4.199  1.00  0.00     0.036 C 
BRANCH  51  52
ATOM     52  CG  ARG     6      15.090  -7.225   4.451  1.00  0.00     0.029 C 
BRANCH  52  53
ATOM     53  CD  ARG     6      16.518  -7.399   3.941  1.00  0.00     0.145 C 
BRANCH  53  54
ATOM     54  NE  ARG     6      17.495  -7.166   5.017  1.00  0.00    -0.083 NA
ATOM     55  CZ  ARG     6      18.516  -6.289   4.968  1.00  0.00     0.782 C 
ATOM     56  NH2 ARG     6      19.396  -6.217   5.970  1.00  0.00     0.063 N 
ATOM     57  NH1 ARG     6      18.712  -5.546   3.885  1.00  0.00     0.063 N 
ENDBRANCH  53  54
ENDBRANCH  52  53
ENDBRANCH  51  52
ENDBRANCH   1  51
BRANCH   1  58
ATOM     58  C   ARG     6      14.323 -10.707   5.262  1.00  0.00     0.274 C 
ATOM     59  N   ASN     7      14.092 -11.527   6.283  1.00  0.00    -0.228 NA
ATOM     60  O   ARG     6      14.841 -11.034   4.194  1.00  0.00    -0.268 OA
BRANCH  59  61
ATOM     61  CA  ASN     7      14.338 -12.983   6.230  1.00  0.00     0.196 C 
BRANCH  61  62
ATOM     62  C   ASN     7      13.023 -13.777   6.107  1.00  0.00     0.275 C 
ATOM     63  N   PHE     8      12.845 -14.794   6.964  1.00  0.00    -0.228 NA
ATOM     64  O   ASN     7      12.095 -13.228   5.546  1.00  0.00    -0.268 OA
BRANCH  63  65
ATOM     65  CA  PHE     8      11.615 -15.618   7.060  1.00  0.00     0.191 C 
BRANCH  65  66
ATOM     66  CB  PHE     8      11.736 -16.780   6.064  1.00  0.00     0.060 C 
BRANCH  66  67
ATOM     67  CG  PHE     8      10.389 -17.375   5.614  1.00  0.00    -0.020 A 
ATOM     68  CD1 PHE     8       9.365 -16.535   5.199  1.00  0.00    -0.004 A 
ATOM     69  CE1 PHE     8       8.113 -17.067   4.889  1.00  0.00    -0.000 A 
ATOM     70  CZ  PHE     8       7.904 -18.433   4.984  1.00  0.00    -0.000 A 
ATOM     71  CE2 PHE     8       8.933 -19.278   5.387  1.00  0.00    -0.000 A 
ATOM     72  CD2 PHE     8      10.184 -18.747   5.696  1.00  0.00    -0.004 A 
ENDBRANCH  66  67
ENDBRANCH  65  66
BRANCH  65  73
ATOM     73  C   PHE     8      11.273 -16.117   8.481  1.00  0.00     0.275 C 
ATOM     74  N   TRP     9      10.224 -16.934   8.587  1.00  0.00    -0.228 NA
ATOM     75  O   PHE     8      11.777 -15.590   9.476  1.00  0.00    -0.268 OA
BRANCH  74  76
ATOM     76  CA  TRP     9       9.858 -17.585   9.869  1.00  0.00     0.191 C 
BRANCH  76  77
ATOM     77  CB  TRP     9       8.465 -17.094  10.295  1.00  0.00     0.062 C 
BRANCH  77  78
ATOM     78  CG  TRP     9       7.696 -16.411   9.165  1.00  0.00     0.001 A 
ATOM     79  CD1 TRP     9       7.745 -15.118   8.857  1.00  0.00     0.095 A 
ATOM     80  NE1 TRP     9       6.750 -14.815   8.034  1.00  0.00    -0.244 NA
ATOM     81  CE2 TRP     9       6.044 -15.905   7.772  1.00  0.00     0.081 A 
ATOM     82  CD2 TRP     9       6.607 -16.950   8.487  1.00  0.00     0.015 A 
ATOM     83  CZ2 TRP     9       4.868 -16.121   7.053  1.00  0.00     0.019 A 
ATOM     84  CE3 TRP     9       6.008 -18.201   8.508  1.00  0.00     0.001 A 
ATOM     85  CZ3 TRP     9       4.828 -18.415   7.803  1.00  0.00     0.000 A 
ATOM     86  CH2 TRP     9       4.273 -17.374   7.061  1.00  0.00     0.002 A 
ENDBRANCH  77  78
ENDBRANCH  76  77
BRANCH  76  87
ATOM     87  C   TRP     9       9.938 -19.128   9.851  1.00  0.00     0.275 C 
ATOM     88  O   TRP     9       9.034 -19.800   9.362  1.00  0.00    -0.268 OA
ATOM     89  N   GLY    10      11.073 -19.664  10.298  1.00  0.00    -0.226 NA
BRANCH  89  90
ATOM     90  CA  GLY    10      11.359 -21.125  10.321  1.00  0.00     0.218 C 
BRANCH  90  91
ATOM     91  C   GLY    10      12.620 -21.585   9.572  1.00  0.00     0.277 C 
ATOM     92  N   CYS    11      12.593 -21.395   8.253  1.00  0.00    -0.228 NA
ATOM     93  O   GLY    10      13.487 -22.232  10.149  1.00  0.00    -0.268 OA
BRANCH  92  94
ATOM     94  CA  CYS    11      13.671 -21.720   7.293  1.00  0.00     0.198 C 
BRANCH  94  95
ATOM     95  C   CYS    11      14.503 -20.444   7.058  1.00  0.00     0.275 C 
ATOM     96  O   CYS    11      13.997 -19.352   7.291  1.00  0.00    -0.268 OA
ATOM     97  N   GLY    12      15.655 -20.609   6.424  1.00  0.00    -0.225 NA
BRANCH  97  98
ATOM     98  CA  GLY    12      16.562 -19.495   6.106  1.00  0.00     0.226 C 
BRANCH  98  99
ATOM     99  C   GLY    12      17.552 -19.980   5.022  1.00  0.00     0.211 C 
ATOM    100  O1  GLY    12      18.469 -19.183   4.698  1.00  0.00    -0.646 OA
ATOM    101  O2  GLY    12      17.400 -21.131   4.571  1.00  0.00    -0.646 OA
ENDBRANCH  98  99
ENDBRANCH  97  98
ENDBRANCH  94  95
BRANCH  94 102
ATOM    102  CB  CYS    11      13.075 -22.080   5.935  1.00  0.00     0.103 C 
ATOM    103  SG  CYS    11      12.148 -23.661   5.851  1.00  0.00    -0.080 SA
ENDBRANCH  94 102
ENDBRANCH  92  94
ENDBRANCH  90  91
ENDBRANCH  89  90
ENDBRANCH  76  87
ENDBRANCH  74  76
ENDBRANCH  65  73
ENDBRANCH  63  65
ENDBRANCH  61  62
BRANCH  61 104
ATOM    104  CB  ASN     7      15.149 -13.455   7.443  1.00  0.00     0.126 C 
BRANCH 104 105
ATOM    105  CG  ASN     7      16.671 -13.520   7.219  1.00  0.00     0.276 C 
ATOM    106  ND2 ASN     7      17.322 -12.386   7.349  1.00  0.00    -0.107 N 
ATOM    107  OD1 ASN     7      17.277 -14.492   6.787  1.00  0.00    -0.269 OA
ENDBRANCH 104 105
ENDBRANCH  61 104
ENDBRANCH  59  61
ENDBRANCH   1  58
TORSDOF 42
ENDMDL
