MODEL 1
REMARK VINA RESULT:      -6.2      0.000      0.000
REMARK WARNING: 32 MAX_TORS EXCEEDED!!!
REMARK  42 active torsions:
REMARK  status: ('A' for Active; 'I' for Inactive)
REMARK    1  A    between atoms: CA_2  and  CB_3 
REMARK    2  A    between atoms: CA_2  and  C_11 
REMARK    3  A    between atoms: CB_3  and  CG_4 
REMARK       I    between atoms: C_11  and  N_13 
REMARK    4  A    between atoms: N_13  and  CA_14 
REMARK    5  A    between atoms: CA_14  and  CB_15 
REMARK    6  A    between atoms: CA_14  and  C_19 
REMARK    7  A    between atoms: CB_15  and  CG_16 
REMARK       I    between atoms: C_19  and  N_21 
REMARK    8  A    between atoms: CA_22  and  C_26 
REMARK       I    between atoms: C_26  and  N_28 
REMARK    9  A    between atoms: N_28  and  CA_29 
REMARK   10  A    between atoms: CA_29  and  C_35 
REMARK   11  A    between atoms: CA_29  and  CB_30 
REMARK   12  A    between atoms: CB_30  and  CG_31 
REMARK   13  A    between atoms: CG_31  and  CD_32 
REMARK       I    between atoms: C_35  and  N_37 
REMARK   14  A    between atoms: N_37  and  CA_38 
REMARK   15  A    between atoms: CA_38  and  CB_39 
REMARK   16  A    between atoms: CA_38  and  C_47 
REMARK   17  A    between atoms: CB_39  and  CG_40 
REMARK       I    between atoms: C_47  and  N_49 
REMARK   18  A    between atoms: N_49  and  CA_50 
REMARK   19  A    between atoms: CA_50  and  CB_51 
REMARK   20  A    between atoms: CA_50  and  C_58 
REMARK   21  A    between atoms: CB_51  and  CG_52 
REMARK   22  A    between atoms: CG_52  and  CD_53 
REMARK   23  A    between atoms: CD_53  and  NE_54 
REMARK       I    between atoms: C_58  and  N_60 
REMARK   24  A    between atoms: N_60  and  CA_61 
REMARK   25  A    between atoms: CA_61  and  C_66 
REMARK   26  A    between atoms: CA_61  and  CB_62 
REMARK   27  A    between atoms: CB_62  and  CG_63 
REMARK       I    between atoms: C_66  and  N_68 
REMARK   28  A    between atoms: N_68  and  CA_69 
REMARK   29  A    between atoms: CA_69  and  CB_70 
REMARK   30  A    between atoms: CA_69  and  C_77 
REMARK   31  A    between atoms: CB_70  and  CG_71 
REMARK       I    between atoms: C_77  and  N_79 
REMARK   32  A    between atoms: N_79  and  CA_80 
REMARK   33  A    between atoms: CA_80  and  CB_81 
REMARK   34  A    between atoms: CA_80  and  C_91 
REMARK   35  A    between atoms: CB_81  and  CG_82 
REMARK       I    between atoms: C_91  and  N_93 
REMARK   36  A    between atoms: N_93  and  CA_94 
REMARK   37  A    between atoms: CA_94  and  C_95 
REMARK       I    between atoms: C_95  and  N_97 
REMARK   38  A    between atoms: N_97  and  CA_98 
REMARK   39  A    between atoms: CA_98  and  C_101 
REMARK   40  A    between atoms: CA_98  and  CB_99 
REMARK       I    between atoms: C_101  and  N_103 
REMARK   41  A    between atoms: N_103  and  CA_104 
REMARK   42  A    between atoms: CA_104  and  C_105 
ROOT
ATOM      1  CA  ARG     6       6.524  -0.328  11.290  1.00  0.00     0.186 C 
ENDROOT
BRANCH   1   2
ATOM      2  N   ARG     6       6.706  -1.757  10.944  1.00  0.00    -0.229 NA
ATOM      3  C   TYR     5       6.752  -2.721  11.873  1.00  0.00     0.275 C 
ATOM      4  O   TYR     5       6.617  -2.485  13.074  1.00  0.00    -0.268 OA
BRANCH   3   5
ATOM      5  CA  TYR     5       6.871  -4.170  11.373  1.00  0.00     0.191 C 
BRANCH   5   6
ATOM      6  N   TYR     5       8.129  -4.440  10.631  1.00  0.00    -0.228 NA
ATOM      7  C   GLU     4       8.160  -5.069   9.444  1.00  0.00     0.274 C 
ATOM      8  O   GLU     4       7.146  -5.343   8.815  1.00  0.00    -0.268 OA
BRANCH   7   9
ATOM      9  CA  GLU     4       9.536  -5.138   8.751  1.00  0.00     0.187 C 
BRANCH   9  10
ATOM     10  CB  GLU     4       9.387  -4.801   7.259  1.00  0.00     0.045 C 
BRANCH  10  11
ATOM     11  CG  GLU     4       9.769  -3.364   6.841  1.00  0.00     0.100 C 
BRANCH  11  12
ATOM     12  CD  GLU     4       8.599  -2.526   6.328  1.00  0.00     0.185 C 
ATOM     13  OE1 GLU     4       7.438  -2.964   6.539  1.00  0.00    -0.647 OA
ATOM     14  OE2 GLU     4       8.834  -1.763   5.369  1.00  0.00    -0.647 OA
ENDBRANCH  11  12
ENDBRANCH  10  11
ENDBRANCH   9  10
BRANCH   9  15
ATOM     15  N   GLU     4      10.184  -6.459   8.873  1.00  0.00    -0.229 NA
ATOM     16  C   PRO     3      11.043  -6.868   9.799  1.00  0.00     0.272 C 
ATOM     17  O   PRO     3      11.149  -6.337  10.906  1.00  0.00    -0.269 OA
BRANCH  16  18
ATOM     18  CA  PRO     3      11.536  -8.308   9.641  1.00  0.00     0.165 C 
ATOM     19  N   PRO     3      12.991  -8.446   9.421  1.00  0.00    -0.312 N 
ATOM     20  CD  PRO     3      13.505  -9.607  10.193  1.00  0.00     0.105 C 
ATOM     21  C   ASP     2      13.689  -7.718   8.530  1.00  0.00     0.257 C 
ATOM     22  CG  PRO     3      12.240 -10.300  10.722  1.00  0.00     0.027 C 
ATOM     23  CB  PRO     3      11.237  -9.160  10.873  1.00  0.00     0.034 C 
ATOM     24  O   ASP     2      13.098  -7.029   7.685  1.00  0.00    -0.270 OA
BRANCH  21  25
ATOM     25  CA  ASP     2      15.193  -8.008   8.323  1.00  0.00     0.195 C 
BRANCH  25  26
ATOM     26  CB  ASP     2      16.176  -6.892   8.762  1.00  0.00     0.132 C 
BRANCH  26  27
ATOM     27  CG  ASP     2      16.901  -7.295  10.060  1.00  0.00     0.188 C 
ATOM     28  OD2 ASP     2      16.323  -6.968  11.127  1.00  0.00    -0.647 OA
ATOM     29  OD1 ASP     2      18.155  -7.360  10.009  1.00  0.00    -0.647 OA
ENDBRANCH  26  27
ENDBRANCH  25  26
BRANCH  25  30
ATOM     30  N   ASP     2      15.531  -8.188   6.901  1.00  0.00    -0.228 NA
ATOM     31  C   TYR     1      15.313  -9.257   6.171  1.00  0.00     0.289 C 
ATOM     32  O   TYR     1      14.669 -10.266   6.475  1.00  0.00    -0.268 OA
BRANCH  31  33
ATOM     33  CA  TYR     1      15.989  -9.166   4.807  1.00  0.00     0.385 C 
ATOM     34  N   TYR     1      16.812 -10.374   4.631  1.00  0.00     0.626 N 
BRANCH  33  35
ATOM     35  CB  TYR     1      14.886  -9.052   3.758  1.00  0.00     0.075 C 
BRANCH  35  36
ATOM     36  CG  TYR     1      14.960  -7.750   2.946  1.00  0.00    -0.019 A 
ATOM     37  CD2 TYR     1      14.235  -7.586   1.776  1.00  0.00    -0.002 A 
ATOM     38  CE2 TYR     1      14.214  -6.356   1.136  1.00  0.00     0.027 A 
ATOM     39  CZ  TYR     1      14.934  -5.293   1.680  1.00  0.00     0.131 A 
ATOM     40  CE1 TYR     1      15.688  -5.476   2.825  1.00  0.00     0.027 A 
ATOM     41  OH  TYR     1      14.782  -4.048   1.187  1.00  0.00    -0.190 OA
ATOM     42  CD1 TYR     1      15.710  -6.705   3.465  1.00  0.00    -0.002 A 
ENDBRANCH  35  36
ENDBRANCH  33  35
ENDBRANCH  31  33
ENDBRANCH  25  30
ENDBRANCH  21  25
ENDBRANCH  16  18
ENDBRANCH   9  15
ENDBRANCH   7   9
ENDBRANCH   5   6
BRANCH   5  43
ATOM     43  CB  TYR     5       6.720  -5.166  12.536  1.00  0.00     0.060 C 
BRANCH  43  44
ATOM     44  CG  TYR     5       5.314  -5.786  12.594  1.00  0.00    -0.020 A 
ATOM     45  CD2 TYR     5       4.393  -5.363  13.544  1.00  0.00    -0.002 A 
ATOM     46  CE2 TYR     5       3.121  -5.926  13.584  1.00  0.00     0.027 A 
ATOM     47  CZ  TYR     5       2.770  -6.911  12.675  1.00  0.00     0.131 A 
ATOM     48  CE1 TYR     5       3.679  -7.327  11.709  1.00  0.00     0.027 A 
ATOM     49  OH  TYR     5       1.590  -7.558  12.794  1.00  0.00    -0.190 OA
ATOM     50  CD1 TYR     5       4.957  -6.768  11.677  1.00  0.00    -0.002 A 
ENDBRANCH  43  44
ENDBRANCH   5  43
ENDBRANCH   3   5
ENDBRANCH   1   2
BRANCH   1  51
ATOM     51  CB  ARG     6       7.160   0.615  10.274  1.00  0.00     0.036 C 
BRANCH  51  52
ATOM     52  CG  ARG     6       8.070  -0.091   9.266  1.00  0.00     0.029 C 
BRANCH  52  53
ATOM     53  CD  ARG     6       8.176   0.728   7.982  1.00  0.00     0.145 C 
BRANCH  53  54
ATOM     54  NE  ARG     6       9.224   1.755   8.097  1.00  0.00    -0.083 NA
ATOM     55  CZ  ARG     6       9.011   3.080   8.214  1.00  0.00     0.782 C 
ATOM     56  NH2 ARG     6      10.036   3.934   8.228  1.00  0.00     0.063 N 
ATOM     57  NH1 ARG     6       7.772   3.560   8.231  1.00  0.00     0.063 N 
ENDBRANCH  53  54
ENDBRANCH  52  53
ENDBRANCH  51  52
ENDBRANCH   1  51
BRANCH   1  58
ATOM     58  C   ARG     6       5.045   0.067  11.391  1.00  0.00     0.274 C 
ATOM     59  N   ASN     7       4.453   0.380  10.242  1.00  0.00    -0.228 NA
ATOM     60  O   ARG     6       4.500   0.080  12.495  1.00  0.00    -0.268 OA
BRANCH  59  61
ATOM     61  CA  ASN     7       3.012   0.690  10.126  1.00  0.00     0.196 C 
BRANCH  61  62
ATOM     62  C   ASN     7       2.158  -0.592  10.081  1.00  0.00     0.275 C 
ATOM     63  N   PHE     8       1.500  -0.924  11.202  1.00  0.00    -0.228 NA
ATOM     64  O   ASN     7       1.822  -0.995   8.984  1.00  0.00    -0.268 OA
BRANCH  63  65
ATOM     65  CA  PHE     8       0.564  -2.068  11.329  1.00  0.00     0.191 C 
BRANCH  65  66
ATOM     66  CB  PHE     8       1.373  -3.308  11.734  1.00  0.00     0.060 C 
BRANCH  66  67
ATOM     67  CG  PHE     8       1.977  -4.088  10.552  1.00  0.00    -0.020 A 
ATOM     68  CD1 PHE     8       3.308  -3.901  10.206  1.00  0.00    -0.004 A 
ATOM     69  CE1 PHE     8       3.826  -4.530   9.074  1.00  0.00    -0.000 A 
ATOM     70  CZ  PHE     8       3.012  -5.351   8.310  1.00  0.00    -0.000 A 
ATOM     71  CE2 PHE     8       1.681  -5.550   8.662  1.00  0.00    -0.000 A 
ATOM     72  CD2 PHE     8       1.163  -4.921   9.794  1.00  0.00    -0.004 A 
ENDBRANCH  66  67
ENDBRANCH  65  66
BRANCH  65  73
ATOM     73  C   PHE     8      -0.631  -1.830  12.279  1.00  0.00     0.275 C 
ATOM     74  N   TRP     9      -1.741  -1.340  11.725  1.00  0.00    -0.228 NA
ATOM     75  O   PHE     8      -0.481  -1.850  13.503  1.00  0.00    -0.268 OA
BRANCH  74  76
ATOM     76  CA  TRP     9      -3.000  -1.180  12.493  1.00  0.00     0.191 C 
BRANCH  76  77
ATOM     77  CB  TRP     9      -3.535   0.246  12.278  1.00  0.00     0.062 C 
BRANCH  77  78
ATOM     78  CG  TRP     9      -3.872   0.548  10.818  1.00  0.00     0.001 A 
ATOM     79  CD1 TRP     9      -5.056   0.373  10.239  1.00  0.00     0.095 A 
ATOM     80  NE1 TRP     9      -4.925   0.450   8.920  1.00  0.00    -0.244 NA
ATOM     81  CE2 TRP     9      -3.660   0.696   8.614  1.00  0.00     0.081 A 
ATOM     82  CD2 TRP     9      -2.946   0.753   9.801  1.00  0.00     0.015 A 
ATOM     83  CZ2 TRP     9      -2.979   0.781   7.400  1.00  0.00     0.019 A 
ATOM     84  CE3 TRP     9      -1.565   0.878   9.794  1.00  0.00     0.001 A 
ATOM     85  CZ3 TRP     9      -0.883   0.949   8.584  1.00  0.00     0.000 A 
ATOM     86  CH2 TRP     9      -1.599   0.919   7.389  1.00  0.00     0.002 A 
ENDBRANCH  77  78
ENDBRANCH  76  77
BRANCH  76  87
ATOM     87  C   TRP     9      -4.078  -2.244  12.187  1.00  0.00     0.275 C 
ATOM     88  O   TRP     9      -3.766  -3.355  11.769  1.00  0.00    -0.268 OA
ATOM     89  N   GLY    10      -5.332  -1.918  12.498  1.00  0.00    -0.226 NA
BRANCH  89  90
ATOM     90  CA  GLY    10      -6.502  -2.821  12.320  1.00  0.00     0.218 C 
BRANCH  90  91
ATOM     91  C   GLY    10      -7.075  -2.923  10.897  1.00  0.00     0.277 C 
ATOM     92  N   CYS    11      -8.234  -2.294  10.711  1.00  0.00    -0.228 NA
ATOM     93  O   GLY    10      -6.570  -3.678  10.074  1.00  0.00    -0.268 OA
BRANCH  92  94
ATOM     94  CA  CYS    11      -8.997  -2.207   9.445  1.00  0.00     0.198 C 
BRANCH  94  95
ATOM     95  C   CYS    11      -8.298  -1.179   8.535  1.00  0.00     0.275 C 
ATOM     96  O   CYS    11      -8.311   0.005   8.853  1.00  0.00    -0.268 OA
ATOM     97  N   GLY    12      -7.895  -1.626   7.354  1.00  0.00    -0.225 NA
BRANCH  97  98
ATOM     98  CA  GLY    12      -7.225  -0.773   6.360  1.00  0.00     0.226 C 
BRANCH  98  99
ATOM     99  C   GLY    12      -5.850  -1.403   6.038  1.00  0.00     0.211 C 
ATOM    100  O1  GLY    12      -5.323  -1.079   4.944  1.00  0.00    -0.646 OA
ATOM    101  O2  GLY    12      -5.343  -2.155   6.891  1.00  0.00    -0.646 OA
ENDBRANCH  98  99
ENDBRANCH  97  98
ENDBRANCH  94  95
BRANCH  94 102
ATOM    102  CB  CYS    11     -10.391  -1.644   9.709  1.00  0.00     0.103 C 
ATOM    103  SG  CYS    11     -10.770  -1.206  11.449  1.00  0.00    -0.080 SA
ENDBRANCH  94 102
ENDBRANCH  92  94
ENDBRANCH  90  91
ENDBRANCH  89  90
ENDBRANCH  76  87
ENDBRANCH  74  76
ENDBRANCH  65  73
ENDBRANCH  63  65
ENDBRANCH  61  62
BRANCH  61 104
ATOM    104  CB  ASN     7       2.730   1.577   8.907  1.00  0.00     0.126 C 
BRANCH 104 105
ATOM    105  CG  ASN     7       2.672   3.086   9.204  1.00  0.00     0.276 C 
ATOM    106  ND2 ASN     7       1.613   3.722   8.757  1.00  0.00    -0.107 N 
ATOM    107  OD1 ASN     7       3.590   3.746   9.676  1.00  0.00    -0.269 OA
ENDBRANCH 104 105
ENDBRANCH  61 104
ENDBRANCH  59  61
ENDBRANCH   1  58
TORSDOF 42
ENDMDL
MODEL 2
REMARK VINA RESULT:      -6.2     21.083     26.028
REMARK WARNING: 32 MAX_TORS EXCEEDED!!!
REMARK  42 active torsions:
REMARK  status: ('A' for Active; 'I' for Inactive)
REMARK    1  A    between atoms: CA_2  and  CB_3 
REMARK    2  A    between atoms: CA_2  and  C_11 
REMARK    3  A    between atoms: CB_3  and  CG_4 
REMARK       I    between atoms: C_11  and  N_13 
REMARK    4  A    between atoms: N_13  and  CA_14 
REMARK    5  A    between atoms: CA_14  and  CB_15 
REMARK    6  A    between atoms: CA_14  and  C_19 
REMARK    7  A    between atoms: CB_15  and  CG_16 
REMARK       I    between atoms: C_19  and  N_21 
REMARK    8  A    between atoms: CA_22  and  C_26 
REMARK       I    between atoms: C_26  and  N_28 
REMARK    9  A    between atoms: N_28  and  CA_29 
REMARK   10  A    between atoms: CA_29  and  C_35 
REMARK   11  A    between atoms: CA_29  and  CB_30 
REMARK   12  A    between atoms: CB_30  and  CG_31 
REMARK   13  A    between atoms: CG_31  and  CD_32 
REMARK       I    between atoms: C_35  and  N_37 
REMARK   14  A    between atoms: N_37  and  CA_38 
REMARK   15  A    between atoms: CA_38  and  CB_39 
REMARK   16  A    between atoms: CA_38  and  C_47 
REMARK   17  A    between atoms: CB_39  and  CG_40 
REMARK       I    between atoms: C_47  and  N_49 
REMARK   18  A    between atoms: N_49  and  CA_50 
REMARK   19  A    between atoms: CA_50  and  CB_51 
REMARK   20  A    between atoms: CA_50  and  C_58 
REMARK   21  A    between atoms: CB_51  and  CG_52 
REMARK   22  A    between atoms: CG_52  and  CD_53 
REMARK   23  A    between atoms: CD_53  and  NE_54 
REMARK       I    between atoms: C_58  and  N_60 
REMARK   24  A    between atoms: N_60  and  CA_61 
REMARK   25  A    between atoms: CA_61  and  C_66 
REMARK   26  A    between atoms: CA_61  and  CB_62 
REMARK   27  A    between atoms: CB_62  and  CG_63 
REMARK       I    between atoms: C_66  and  N_68 
REMARK   28  A    between atoms: N_68  and  CA_69 
REMARK   29  A    between atoms: CA_69  and  CB_70 
REMARK   30  A    between atoms: CA_69  and  C_77 
REMARK   31  A    between atoms: CB_70  and  CG_71 
REMARK       I    between atoms: C_77  and  N_79 
REMARK   32  A    between atoms: N_79  and  CA_80 
REMARK   33  A    between atoms: CA_80  and  CB_81 
REMARK   34  A    between atoms: CA_80  and  C_91 
REMARK   35  A    between atoms: CB_81  and  CG_82 
REMARK       I    between atoms: C_91  and  N_93 
REMARK   36  A    between atoms: N_93  and  CA_94 
REMARK   37  A    between atoms: CA_94  and  C_95 
REMARK       I    between atoms: C_95  and  N_97 
REMARK   38  A    between atoms: N_97  and  CA_98 
REMARK   39  A    between atoms: CA_98  and  C_101 
REMARK   40  A    between atoms: CA_98  and  CB_99 
REMARK       I    between atoms: C_101  and  N_103 
REMARK   41  A    between atoms: N_103  and  CA_104 
REMARK   42  A    between atoms: CA_104  and  C_105 
ROOT
ATOM      1  CA  ARG     6      -5.390 -22.111   2.235  1.00  0.00     0.186 C 
ENDROOT
BRANCH   1   2
ATOM      2  N   ARG     6      -4.743 -21.930   3.555  1.00  0.00    -0.229 NA
ATOM      3  C   TYR     5      -4.011 -20.849   3.854  1.00  0.00     0.275 C 
ATOM      4  O   TYR     5      -3.853 -19.921   3.061  1.00  0.00    -0.268 OA
BRANCH   3   5
ATOM      5  CA  TYR     5      -3.458 -20.752   5.285  1.00  0.00     0.191 C 
BRANCH   5   6
ATOM      6  N   TYR     5      -2.599 -19.560   5.509  1.00  0.00    -0.228 NA
ATOM      7  C   GLU     4      -1.469 -19.596   6.234  1.00  0.00     0.274 C 
ATOM      8  O   GLU     4      -0.983 -20.640   6.649  1.00  0.00    -0.268 OA
BRANCH   7   9
ATOM      9  CA  GLU     4      -0.630 -18.301   6.244  1.00  0.00     0.187 C 
BRANCH   9  10
ATOM     10  CB  GLU     4       0.360 -18.331   7.419  1.00  0.00     0.045 C 
BRANCH  10  11
ATOM     11  CG  GLU     4       1.837 -18.608   7.062  1.00  0.00     0.100 C 
BRANCH  11  12
ATOM     12  CD  GLU     4       2.415 -19.866   7.711  1.00  0.00     0.185 C 
ATOM     13  OE1 GLU     4       2.179 -20.046   8.934  1.00  0.00    -0.647 OA
ATOM     14  OE2 GLU     4       3.425 -20.362   7.171  1.00  0.00    -0.647 OA
ENDBRANCH  11  12
ENDBRANCH  10  11
ENDBRANCH   9  10
BRANCH   9  15
ATOM     15  N   GLU     4      -1.448 -17.078   6.347  1.00  0.00    -0.229 NA
ATOM     16  C   PRO     3      -2.076 -16.599   7.415  1.00  0.00     0.272 C 
ATOM     17  O   PRO     3      -1.771 -16.900   8.570  1.00  0.00    -0.269 OA
BRANCH  16  18
ATOM     18  CA  PRO     3      -2.849 -15.298   7.190  1.00  0.00     0.165 C 
ATOM     19  N   PRO     3      -4.279 -15.352   7.561  1.00  0.00    -0.312 N 
ATOM     20  CD  PRO     3      -4.669 -14.084   8.228  1.00  0.00     0.105 C 
ATOM     21  C   ASP     2      -5.113 -16.343   7.198  1.00  0.00     0.257 C 
ATOM     22  CG  PRO     3      -3.450 -13.167   8.045  1.00  0.00     0.027 C 
ATOM     23  CB  PRO     3      -2.272 -14.136   7.995  1.00  0.00     0.034 C 
ATOM     24  O   ASP     2      -4.767 -17.170   6.340  1.00  0.00    -0.270 OA
BRANCH  21  25
ATOM     25  CA  ASP     2      -6.610 -16.253   7.570  1.00  0.00     0.195 C 
BRANCH  25  26
ATOM     26  CB  ASP     2      -6.945 -16.262   9.084  1.00  0.00     0.132 C 
BRANCH  26  27
ATOM     27  CG  ASP     2      -6.596 -17.628   9.704  1.00  0.00     0.188 C 
ATOM     28  OD2 ASP     2      -7.491 -18.141  10.423  1.00  0.00    -0.647 OA
ATOM     29  OD1 ASP     2      -5.383 -17.843   9.948  1.00  0.00    -0.647 OA
ENDBRANCH  26  27
ENDBRANCH  25  26
BRANCH  25  30
ATOM     30  N   ASP     2      -7.376 -17.406   7.068  1.00  0.00    -0.228 NA
ATOM     31  C   TYR     1      -8.603 -17.389   6.601  1.00  0.00     0.289 C 
ATOM     32  O   TYR     1      -9.312 -16.407   6.360  1.00  0.00    -0.268 OA
BRANCH  31  33
ATOM     33  CA  TYR     1      -9.148 -18.796   6.377  1.00  0.00     0.385 C 
ATOM     34  N   TYR     1      -9.457 -18.938   4.944  1.00  0.00     0.626 N 
BRANCH  33  35
ATOM     35  CB  TYR     1      -8.077 -19.779   6.844  1.00  0.00     0.075 C 
BRANCH  35  36
ATOM     36  CG  TYR     1      -8.578 -21.230   6.903  1.00  0.00    -0.019 A 
ATOM     37  CD2 TYR     1      -9.526 -21.630   7.832  1.00  0.00    -0.002 A 
ATOM     38  CE2 TYR     1     -10.060 -22.908   7.778  1.00  0.00     0.027 A 
ATOM     39  CZ  TYR     1      -9.626 -23.785   6.784  1.00  0.00     0.131 A 
ATOM     40  CE1 TYR     1      -8.650 -23.393   5.886  1.00  0.00     0.027 A 
ATOM     41  OH  TYR     1     -10.259 -24.960   6.592  1.00  0.00    -0.190 OA
ATOM     42  CD1 TYR     1      -8.116 -22.114   5.940  1.00  0.00    -0.002 A 
ENDBRANCH  35  36
ENDBRANCH  33  35
ENDBRANCH  31  33
ENDBRANCH  25  30
ENDBRANCH  21  25
ENDBRANCH  16  18
ENDBRANCH   9  15
ENDBRANCH   7   9
ENDBRANCH   5   6
BRANCH   5  43
ATOM     43  CB  TYR     5      -4.597 -20.783   6.318  1.00  0.00     0.060 C 
BRANCH  43  44
ATOM     44  CG  TYR     5      -4.478 -21.974   7.284  1.00  0.00    -0.020 A 
ATOM     45  CD2 TYR     5      -3.597 -23.014   7.017  1.00  0.00    -0.002 A 
ATOM     46  CE2 TYR     5      -3.491 -24.084   7.900  1.00  0.00     0.027 A 
ATOM     47  CZ  TYR     5      -4.264 -24.114   9.050  1.00  0.00     0.131 A 
ATOM     48  CE1 TYR     5      -5.135 -23.067   9.334  1.00  0.00     0.027 A 
ATOM     49  OH  TYR     5      -4.270 -25.210   9.839  1.00  0.00    -0.190 OA
ATOM     50  CD1 TYR     5      -5.246 -22.000   8.442  1.00  0.00    -0.002 A 
ENDBRANCH  43  44
ENDBRANCH   5  43
ENDBRANCH   3   5
ENDBRANCH   1   2
BRANCH   1  51
ATOM     51  CB  ARG     6      -4.974 -23.404   1.542  1.00  0.00     0.036 C 
BRANCH  51  52
ATOM     52  CG  ARG     6      -3.841 -23.222   0.529  1.00  0.00     0.029 C 
BRANCH  52  53
ATOM     53  CD  ARG     6      -2.625 -24.049   0.938  1.00  0.00     0.145 C 
BRANCH  53  54
ATOM     54  NE  ARG     6      -1.923 -23.429   2.074  1.00  0.00    -0.083 NA
ATOM     55  CZ  ARG     6      -1.762 -23.985   3.290  1.00  0.00     0.782 C 
ATOM     56  NH2 ARG     6      -1.180 -23.299   4.277  1.00  0.00     0.063 N 
ATOM     57  NH1 ARG     6      -2.258 -25.190   3.548  1.00  0.00     0.063 N 
ENDBRANCH  53  54
ENDBRANCH  52  53
ENDBRANCH  51  52
ENDBRANCH   1  51
BRANCH   1  58
ATOM     58  C   ARG     6      -6.921 -22.137   2.329  1.00  0.00     0.274 C 
ATOM     59  N   ASN     7      -7.499 -23.291   2.010  1.00  0.00    -0.228 NA
ATOM     60  O   ARG     6      -7.519 -21.119   2.681  1.00  0.00    -0.268 OA
BRANCH  59  61
ATOM     61  CA  ASN     7      -8.951 -23.537   2.134  1.00  0.00     0.196 C 
BRANCH  61  62
ATOM     62  C   ASN     7      -9.243 -24.962   2.645  1.00  0.00     0.275 C 
ATOM     63  N   PHE     8      -8.185 -25.719   2.970  1.00  0.00    -0.228 NA
ATOM     64  O   ASN     7     -10.357 -25.176   3.082  1.00  0.00    -0.268 OA
BRANCH  63  65
ATOM     65  CA  PHE     8      -8.264 -27.079   3.557  1.00  0.00     0.191 C 
BRANCH  65  66
ATOM     66  CB  PHE     8      -7.654 -28.071   2.557  1.00  0.00     0.060 C 
BRANCH  66  67
ATOM     67  CG  PHE     8      -8.638 -28.583   1.488  1.00  0.00    -0.020 A 
ATOM     68  CD1 PHE     8      -8.760 -27.909   0.281  1.00  0.00    -0.004 A 
ATOM     69  CE1 PHE     8      -9.723 -28.313  -0.645  1.00  0.00    -0.000 A 
ATOM     70  CZ  PHE     8     -10.542 -29.393  -0.359  1.00  0.00    -0.000 A 
ATOM     71  CE2 PHE     8     -10.411 -30.078   0.845  1.00  0.00    -0.000 A 
ATOM     72  CD2 PHE     8      -9.449 -29.675   1.770  1.00  0.00    -0.004 A 
ENDBRANCH  66  67
ENDBRANCH  65  66
BRANCH  65  73
ATOM     73  C   PHE     8      -7.632 -27.221   4.960  1.00  0.00     0.275 C 
ATOM     74  N   TRP     9      -8.416 -27.722   5.916  1.00  0.00    -0.228 NA
ATOM     75  O   PHE     8      -6.562 -26.671   5.232  1.00  0.00    -0.268 OA
BRANCH  74  76
ATOM     76  CA  TRP     9      -7.904 -28.027   7.275  1.00  0.00     0.191 C 
BRANCH  76  77
ATOM     77  CB  TRP     9      -9.020 -27.759   8.298  1.00  0.00     0.062 C 
BRANCH  77  78
ATOM     78  CG  TRP     9      -8.703 -26.603   9.246  1.00  0.00     0.001 A 
ATOM     79  CD1 TRP     9      -7.508 -26.316   9.755  1.00  0.00     0.095 A 
ATOM     80  NE1 TRP     9      -7.642 -25.451  10.752  1.00  0.00    -0.244 NA
ATOM     81  CE2 TRP     9      -8.921 -25.142  10.901  1.00  0.00     0.081 A 
ATOM     82  CD2 TRP     9      -9.640 -25.868   9.965  1.00  0.00     0.015 A 
ATOM     83  CZ2 TRP     9      -9.604 -24.365  11.837  1.00  0.00     0.019 A 
ATOM     84  CE3 TRP     9     -11.027 -25.844   9.958  1.00  0.00     0.001 A 
ATOM     85  CZ3 TRP     9     -11.710 -25.081  10.899  1.00  0.00     0.000 A 
ATOM     86  CH2 TRP     9     -10.991 -24.328  11.826  1.00  0.00     0.002 A 
ENDBRANCH  77  78
ENDBRANCH  76  77
BRANCH  76  87
ATOM     87  C   TRP     9      -7.315 -29.447   7.434  1.00  0.00     0.275 C 
ATOM     88  O   TRP     9      -6.108 -29.645   7.324  1.00  0.00    -0.268 OA
ATOM     89  N   GLY    10      -8.171 -30.403   7.792  1.00  0.00    -0.226 NA
BRANCH  89  90
ATOM     90  CA  GLY    10      -7.791 -31.821   8.037  1.00  0.00     0.218 C 
BRANCH  90  91
ATOM     91  C   GLY    10      -7.925 -32.779   6.842  1.00  0.00     0.277 C 
ATOM     92  N   CYS    11      -7.188 -32.461   5.779  1.00  0.00    -0.228 NA
ATOM     93  O   GLY    10      -8.784 -33.654   6.838  1.00  0.00    -0.268 OA
BRANCH  92  94
ATOM     94  CA  CYS    11      -7.104 -33.213   4.507  1.00  0.00     0.198 C 
BRANCH  94  95
ATOM     95  C   CYS    11      -5.644 -33.164   4.017  1.00  0.00     0.275 C 
ATOM     96  O   CYS    11      -4.978 -34.194   4.024  1.00  0.00    -0.268 OA
ATOM     97  N   GLY    12      -5.141 -31.956   3.806  1.00  0.00    -0.225 NA
BRANCH  97  98
ATOM     98  CA  GLY    12      -3.760 -31.731   3.353  1.00  0.00     0.226 C 
BRANCH  98  99
ATOM     99  C   GLY    12      -3.595 -30.221   3.058  1.00  0.00     0.211 C 
ATOM    100  O1  GLY    12      -2.614 -29.890   2.344  1.00  0.00    -0.646 OA
ATOM    101  O2  GLY    12      -4.455 -29.444   3.512  1.00  0.00    -0.646 OA
ENDBRANCH  98  99
ENDBRANCH  97  98
ENDBRANCH  94  95
BRANCH  94 102
ATOM    102  CB  CYS    11      -7.925 -32.512   3.427  1.00  0.00     0.103 C 
ATOM    103  SG  CYS    11      -8.288 -33.496   1.922  1.00  0.00    -0.080 SA
ENDBRANCH  94 102
ENDBRANCH  92  94
ENDBRANCH  90  91
ENDBRANCH  89  90
ENDBRANCH  76  87
ENDBRANCH  74  76
ENDBRANCH  65  73
ENDBRANCH  63  65
ENDBRANCH  61  62
BRANCH  61 104
ATOM    104  CB  ASN     7      -9.676 -23.274   0.808  1.00  0.00     0.126 C 
BRANCH 104 105
ATOM    105  CG  ASN     7     -10.740 -22.162   0.862  1.00  0.00     0.276 C 
ATOM    106  ND2 ASN     7     -10.913 -21.586   2.030  1.00  0.00    -0.107 N 
ATOM    107  OD1 ASN     7     -11.522 -21.893  -0.041  1.00  0.00    -0.269 OA
ENDBRANCH 104 105
ENDBRANCH  61 104
ENDBRANCH  59  61
ENDBRANCH   1  58
TORSDOF 42
ENDMDL
MODEL 3
REMARK VINA RESULT:      -6.1     20.181     25.648
REMARK WARNING: 32 MAX_TORS EXCEEDED!!!
REMARK  42 active torsions:
REMARK  status: ('A' for Active; 'I' for Inactive)
REMARK    1  A    between atoms: CA_2  and  CB_3 
REMARK    2  A    between atoms: CA_2  and  C_11 
REMARK    3  A    between atoms: CB_3  and  CG_4 
REMARK       I    between atoms: C_11  and  N_13 
REMARK    4  A    between atoms: N_13  and  CA_14 
REMARK    5  A    between atoms: CA_14  and  CB_15 
REMARK    6  A    between atoms: CA_14  and  C_19 
REMARK    7  A    between atoms: CB_15  and  CG_16 
REMARK       I    between atoms: C_19  and  N_21 
REMARK    8  A    between atoms: CA_22  and  C_26 
REMARK       I    between atoms: C_26  and  N_28 
REMARK    9  A    between atoms: N_28  and  CA_29 
REMARK   10  A    between atoms: CA_29  and  C_35 
REMARK   11  A    between atoms: CA_29  and  CB_30 
REMARK   12  A    between atoms: CB_30  and  CG_31 
REMARK   13  A    between atoms: CG_31  and  CD_32 
REMARK       I    between atoms: C_35  and  N_37 
REMARK   14  A    between atoms: N_37  and  CA_38 
REMARK   15  A    between atoms: CA_38  and  CB_39 
REMARK   16  A    between atoms: CA_38  and  C_47 
REMARK   17  A    between atoms: CB_39  and  CG_40 
REMARK       I    between atoms: C_47  and  N_49 
REMARK   18  A    between atoms: N_49  and  CA_50 
REMARK   19  A    between atoms: CA_50  and  CB_51 
REMARK   20  A    between atoms: CA_50  and  C_58 
REMARK   21  A    between atoms: CB_51  and  CG_52 
REMARK   22  A    between atoms: CG_52  and  CD_53 
REMARK   23  A    between atoms: CD_53  and  NE_54 
REMARK       I    between atoms: C_58  and  N_60 
REMARK   24  A    between atoms: N_60  and  CA_61 
REMARK   25  A    between atoms: CA_61  and  C_66 
REMARK   26  A    between atoms: CA_61  and  CB_62 
REMARK   27  A    between atoms: CB_62  and  CG_63 
REMARK       I    between atoms: C_66  and  N_68 
REMARK   28  A    between atoms: N_68  and  CA_69 
REMARK   29  A    between atoms: CA_69  and  CB_70 
REMARK   30  A    between atoms: CA_69  and  C_77 
REMARK   31  A    between atoms: CB_70  and  CG_71 
REMARK       I    between atoms: C_77  and  N_79 
REMARK   32  A    between atoms: N_79  and  CA_80 
REMARK   33  A    between atoms: CA_80  and  CB_81 
REMARK   34  A    between atoms: CA_80  and  C_91 
REMARK   35  A    between atoms: CB_81  and  CG_82 
REMARK       I    between atoms: C_91  and  N_93 
REMARK   36  A    between atoms: N_93  and  CA_94 
REMARK   37  A    between atoms: CA_94  and  C_95 
REMARK       I    between atoms: C_95  and  N_97 
REMARK   38  A    between atoms: N_97  and  CA_98 
REMARK   39  A    between atoms: CA_98  and  C_101 
REMARK   40  A    between atoms: CA_98  and  CB_99 
REMARK       I    between atoms: C_101  and  N_103 
REMARK   41  A    between atoms: N_103  and  CA_104 
REMARK   42  A    between atoms: CA_104  and  C_105 
ROOT
ATOM      1  CA  ARG     6      -7.072 -23.192   6.604  1.00  0.00     0.186 C 
ENDROOT
BRANCH   1   2
ATOM      2  N   ARG     6      -8.521 -23.482   6.506  1.00  0.00    -0.229 NA
ATOM      3  C   TYR     5      -9.136 -24.351   7.319  1.00  0.00     0.275 C 
ATOM      4  O   TYR     5      -8.542 -24.943   8.220  1.00  0.00    -0.268 OA
BRANCH   3   5
ATOM      5  CA  TYR     5     -10.658 -24.503   7.159  1.00  0.00     0.191 C 
BRANCH   5   6
ATOM      6  N   TYR     5     -11.081 -24.796   5.765  1.00  0.00    -0.228 NA
ATOM      7  C   GLU     4     -10.621 -25.846   5.064  1.00  0.00     0.274 C 
ATOM      8  O   GLU     4      -9.927 -26.721   5.564  1.00  0.00    -0.268 OA
BRANCH   7   9
ATOM      9  CA  GLU     4     -11.274 -26.077   3.686  1.00  0.00     0.187 C 
BRANCH   9  10
ATOM     10  CB  GLU     4     -12.776 -26.355   3.860  1.00  0.00     0.045 C 
BRANCH  10  11
ATOM     11  CG  GLU     4     -13.400 -27.371   2.878  1.00  0.00     0.100 C 
BRANCH  11  12
ATOM     12  CD  GLU     4     -14.308 -28.408   3.538  1.00  0.00     0.185 C 
ATOM     13  OE1 GLU     4     -15.526 -28.396   3.221  1.00  0.00    -0.647 OA
ATOM     14  OE2 GLU     4     -13.935 -28.859   4.640  1.00  0.00    -0.647 OA
ENDBRANCH  11  12
ENDBRANCH  10  11
ENDBRANCH   9  10
BRANCH   9  15
ATOM     15  N   GLU     4     -10.671 -27.196   2.936  1.00  0.00    -0.229 NA
ATOM     16  C   PRO     3     -10.000 -27.148   1.791  1.00  0.00     0.272 C 
ATOM     17  O   PRO     3      -9.457 -26.127   1.367  1.00  0.00    -0.269 OA
BRANCH  16  18
ATOM     18  CA  PRO     3      -9.502 -28.498   1.270  1.00  0.00     0.165 C 
ATOM     19  N   PRO     3      -8.631 -29.242   2.205  1.00  0.00    -0.312 N 
ATOM     20  CD  PRO     3      -8.972 -30.687   2.162  1.00  0.00     0.105 C 
ATOM     21  C   ASP     2      -7.592 -28.694   2.861  1.00  0.00     0.257 C 
ATOM     22  CG  PRO     3      -9.953 -30.811   0.986  1.00  0.00     0.027 C 
ATOM     23  CB  PRO     3     -10.649 -29.453   0.949  1.00  0.00     0.034 C 
ATOM     24  O   ASP     2      -7.177 -27.568   2.548  1.00  0.00    -0.270 OA
BRANCH  21  25
ATOM     25  CA  ASP     2      -6.696 -29.588   3.748  1.00  0.00     0.195 C 
BRANCH  25  26
ATOM     26  CB  ASP     2      -6.984 -29.557   5.271  1.00  0.00     0.132 C 
BRANCH  26  27
ATOM     27  CG  ASP     2      -6.228 -28.393   5.938  1.00  0.00     0.188 C 
ATOM     28  OD2 ASP     2      -5.370 -28.725   6.796  1.00  0.00    -0.647 OA
ATOM     29  OD1 ASP     2      -6.848 -27.306   6.046  1.00  0.00    -0.647 OA
ENDBRANCH  26  27
ENDBRANCH  25  26
BRANCH  25  30
ATOM     30  N   ASP     2      -5.280 -29.189   3.684  1.00  0.00    -0.228 NA
ATOM     31  C   TYR     1      -4.240 -29.990   3.641  1.00  0.00     0.289 C 
ATOM     32  O   TYR     1      -4.231 -31.218   3.508  1.00  0.00    -0.268 OA
BRANCH  31  33
ATOM     33  CA  TYR     1      -2.927 -29.230   3.801  1.00  0.00     0.385 C 
ATOM     34  N   TYR     1      -2.072 -29.559   2.649  1.00  0.00     0.626 N 
BRANCH  33  35
ATOM     35  CB  TYR     1      -3.267 -27.743   3.872  1.00  0.00     0.075 C 
BRANCH  35  36
ATOM     36  CG  TYR     1      -2.581 -27.025   5.044  1.00  0.00    -0.019 A 
ATOM     37  CD2 TYR     1      -1.419 -27.520   5.614  1.00  0.00    -0.002 A 
ATOM     38  CE2 TYR     1      -0.746 -26.783   6.577  1.00  0.00     0.027 A 
ATOM     39  CZ  TYR     1      -1.257 -25.546   6.968  1.00  0.00     0.131 A 
ATOM     40  CE1 TYR     1      -2.439 -25.077   6.424  1.00  0.00     0.027 A 
ATOM     41  OH  TYR     1      -0.530 -24.731   7.758  1.00  0.00    -0.190 OA
ATOM     42  CD1 TYR     1      -3.112 -25.813   5.461  1.00  0.00    -0.002 A 
ENDBRANCH  35  36
ENDBRANCH  33  35
ENDBRANCH  31  33
ENDBRANCH  25  30
ENDBRANCH  21  25
ENDBRANCH  16  18
ENDBRANCH   9  15
ENDBRANCH   7   9
ENDBRANCH   5   6
BRANCH   5  43
ATOM     43  CB  TYR     5     -11.205 -25.578   8.114  1.00  0.00     0.060 C 
BRANCH  43  44
ATOM     44  CG  TYR     5     -12.115 -24.983   9.202  1.00  0.00    -0.020 A 
ATOM     45  CD2 TYR     5     -11.786 -25.109  10.545  1.00  0.00    -0.002 A 
ATOM     46  CE2 TYR     5     -12.612 -24.561  11.522  1.00  0.00     0.027 A 
ATOM     47  CZ  TYR     5     -13.766 -23.887  11.156  1.00  0.00     0.131 A 
ATOM     48  CE1 TYR     5     -14.094 -23.741   9.812  1.00  0.00     0.027 A 
ATOM     49  OH  TYR     5     -14.642 -23.475  12.098  1.00  0.00    -0.190 OA
ATOM     50  CD1 TYR     5     -13.269 -24.299   8.835  1.00  0.00    -0.002 A 
ENDBRANCH  43  44
ENDBRANCH   5  43
ENDBRANCH   3   5
ENDBRANCH   1   2
BRANCH   1  51
ATOM     51  CB  ARG     6      -6.226 -24.076   5.692  1.00  0.00     0.036 C 
BRANCH  51  52
ATOM     52  CG  ARG     6      -6.803 -24.233   4.282  1.00  0.00     0.029 C 
BRANCH  52  53
ATOM     53  CD  ARG     6      -5.806 -23.730   3.242  1.00  0.00     0.145 C 
BRANCH  53  54
ATOM     54  NE  ARG     6      -5.126 -24.853   2.577  1.00  0.00    -0.083 NA
ATOM     55  CZ  ARG     6      -5.084 -25.065   1.247  1.00  0.00     0.782 C 
ATOM     56  NH2 ARG     6      -4.509 -26.163   0.754  1.00  0.00     0.063 N 
ATOM     57  NH1 ARG     6      -5.691 -24.226   0.415  1.00  0.00     0.063 N 
ENDBRANCH  53  54
ENDBRANCH  52  53
ENDBRANCH  51  52
ENDBRANCH   1  51
BRANCH   1  58
ATOM     58  C   ARG     6      -6.737 -21.740   6.241  1.00  0.00     0.274 C 
ATOM     59  N   ASN     7      -5.482 -21.363   6.466  1.00  0.00    -0.228 NA
ATOM     60  O   ARG     6      -7.621 -21.017   5.778  1.00  0.00    -0.268 OA
BRANCH  59  61
ATOM     61  CA  ASN     7      -4.950 -20.037   6.091  1.00  0.00     0.196 C 
BRANCH  61  62
ATOM     62  C   ASN     7      -3.452 -20.108   5.733  1.00  0.00     0.275 C 
ATOM     63  N   PHE     8      -2.829 -21.275   5.953  1.00  0.00    -0.228 NA
ATOM     64  O   ASN     7      -3.032 -19.283   4.944  1.00  0.00    -0.268 OA
BRANCH  63  65
ATOM     65  CA  PHE     8      -1.419 -21.565   5.596  1.00  0.00     0.191 C 
BRANCH  65  66
ATOM     66  CB  PHE     8      -1.337 -21.745   4.073  1.00  0.00     0.060 C 
BRANCH  66  67
ATOM     67  CG  PHE     8      -0.937 -23.162   3.621  1.00  0.00    -0.020 A 
ATOM     68  CD1 PHE     8       0.241 -23.731   4.085  1.00  0.00    -0.004 A 
ATOM     69  CE1 PHE     8       0.653 -24.970   3.596  1.00  0.00    -0.000 A 
ATOM     70  CZ  PHE     8      -0.125 -25.634   2.661  1.00  0.00    -0.000 A 
ATOM     71  CE2 PHE     8      -1.313 -25.072   2.205  1.00  0.00    -0.000 A 
ATOM     72  CD2 PHE     8      -1.725 -23.832   2.694  1.00  0.00    -0.004 A 
ENDBRANCH  66  67
ENDBRANCH  65  66
BRANCH  65  73
ATOM     73  C   PHE     8      -0.391 -20.530   6.105  1.00  0.00     0.275 C 
ATOM     74  N   TRP     9      -0.593 -20.047   7.332  1.00  0.00    -0.228 NA
ATOM     75  O   PHE     8       0.411 -20.000   5.332  1.00  0.00    -0.268 OA
BRANCH  74  76
ATOM     76  CA  TRP     9       0.381 -19.143   7.992  1.00  0.00     0.191 C 
BRANCH  76  77
ATOM     77  CB  TRP     9      -0.392 -18.049   8.748  1.00  0.00     0.062 C 
BRANCH  77  78
ATOM     78  CG  TRP     9      -1.147 -17.096   7.822  1.00  0.00     0.001 A 
ATOM     79  CD1 TRP     9      -0.810 -16.792   6.572  1.00  0.00     0.095 A 
ATOM     80  NE1 TRP     9      -1.496 -15.730   6.168  1.00  0.00    -0.244 NA
ATOM     81  CE2 TRP     9      -2.306 -15.332   7.138  1.00  0.00     0.081 A 
ATOM     82  CD2 TRP     9      -2.106 -16.172   8.222  1.00  0.00     0.015 A 
ATOM     83  CZ2 TRP     9      -3.161 -14.237   7.267  1.00  0.00     0.019 A 
ATOM     84  CE3 TRP     9      -2.731 -15.927   9.436  1.00  0.00     0.001 A 
ATOM     85  CZ3 TRP     9      -3.573 -14.828   9.571  1.00  0.00     0.000 A 
ATOM     86  CH2 TRP     9      -3.799 -13.997   8.475  1.00  0.00     0.002 A 
ENDBRANCH  77  78
ENDBRANCH  76  77
BRANCH  76  87
ATOM     87  C   TRP     9       1.400 -19.857   8.909  1.00  0.00     0.275 C 
ATOM     88  O   TRP     9       1.257 -19.859  10.128  1.00  0.00    -0.268 OA
ATOM     89  N   GLY    10       2.364 -20.541   8.295  1.00  0.00    -0.226 NA
BRANCH  89  90
ATOM     90  CA  GLY    10       3.412 -21.329   9.001  1.00  0.00     0.218 C 
BRANCH  90  91
ATOM     91  C   GLY    10       4.642 -20.546   9.489  1.00  0.00     0.277 C 
ATOM     92  N   CYS    11       5.761 -20.770   8.802  1.00  0.00    -0.228 NA
ATOM     93  O   GLY    10       4.601 -19.911  10.536  1.00  0.00    -0.268 OA
BRANCH  92  94
ATOM     94  CA  CYS    11       7.080 -20.140   9.035  1.00  0.00     0.198 C 
BRANCH  94  95
ATOM     95  C   CYS    11       7.446 -19.318   7.784  1.00  0.00     0.275 C 
ATOM     96  O   CYS    11       6.704 -19.356   6.808  1.00  0.00    -0.268 OA
ATOM     97  N   GLY    12       8.655 -18.776   7.777  1.00  0.00    -0.225 NA
BRANCH  97  98
ATOM     98  CA  GLY    12       9.168 -17.975   6.654  1.00  0.00     0.226 C 
BRANCH  98  99
ATOM     99  C   GLY    12       8.919 -16.484   6.977  1.00  0.00     0.211 C 
ATOM    100  O1  GLY    12       9.540 -16.009   7.961  1.00  0.00    -0.646 OA
ATOM    101  O2  GLY    12       8.154 -15.848   6.228  1.00  0.00    -0.646 OA
ENDBRANCH  98  99
ENDBRANCH  97  98
ENDBRANCH  94  95
BRANCH  94 102
ATOM    102  CB  CYS    11       8.161 -21.211   9.156  1.00  0.00     0.103 C 
ATOM    103  SG  CYS    11       7.941 -22.702   8.110  1.00  0.00    -0.080 SA
ENDBRANCH  94 102
ENDBRANCH  92  94
ENDBRANCH  90  91
ENDBRANCH  89  90
ENDBRANCH  76  87
ENDBRANCH  74  76
ENDBRANCH  65  73
ENDBRANCH  63  65
ENDBRANCH  61  62
BRANCH  61 104
ATOM    104  CB  ASN     7      -5.197 -19.004   7.197  1.00  0.00     0.126 C 
BRANCH 104 105
ATOM    105  CG  ASN     7      -5.789 -17.667   6.713  1.00  0.00     0.276 C 
ATOM    106  ND2 ASN     7      -6.116 -17.607   5.443  1.00  0.00    -0.107 N 
ATOM    107  OD1 ASN     7      -5.829 -16.636   7.373  1.00  0.00    -0.269 OA
ENDBRANCH 104 105
ENDBRANCH  61 104
ENDBRANCH  59  61
ENDBRANCH   1  58
TORSDOF 42
ENDMDL
MODEL 4
REMARK VINA RESULT:      -6.1     20.304     24.699
REMARK WARNING: 32 MAX_TORS EXCEEDED!!!
REMARK  42 active torsions:
REMARK  status: ('A' for Active; 'I' for Inactive)
REMARK    1  A    between atoms: CA_2  and  CB_3 
REMARK    2  A    between atoms: CA_2  and  C_11 
REMARK    3  A    between atoms: CB_3  and  CG_4 
REMARK       I    between atoms: C_11  and  N_13 
REMARK    4  A    between atoms: N_13  and  CA_14 
REMARK    5  A    between atoms: CA_14  and  CB_15 
REMARK    6  A    between atoms: CA_14  and  C_19 
REMARK    7  A    between atoms: CB_15  and  CG_16 
REMARK       I    between atoms: C_19  and  N_21 
REMARK    8  A    between atoms: CA_22  and  C_26 
REMARK       I    between atoms: C_26  and  N_28 
REMARK    9  A    between atoms: N_28  and  CA_29 
REMARK   10  A    between atoms: CA_29  and  C_35 
REMARK   11  A    between atoms: CA_29  and  CB_30 
REMARK   12  A    between atoms: CB_30  and  CG_31 
REMARK   13  A    between atoms: CG_31  and  CD_32 
REMARK       I    between atoms: C_35  and  N_37 
REMARK   14  A    between atoms: N_37  and  CA_38 
REMARK   15  A    between atoms: CA_38  and  CB_39 
REMARK   16  A    between atoms: CA_38  and  C_47 
REMARK   17  A    between atoms: CB_39  and  CG_40 
REMARK       I    between atoms: C_47  and  N_49 
REMARK   18  A    between atoms: N_49  and  CA_50 
REMARK   19  A    between atoms: CA_50  and  CB_51 
REMARK   20  A    between atoms: CA_50  and  C_58 
REMARK   21  A    between atoms: CB_51  and  CG_52 
REMARK   22  A    between atoms: CG_52  and  CD_53 
REMARK   23  A    between atoms: CD_53  and  NE_54 
REMARK       I    between atoms: C_58  and  N_60 
REMARK   24  A    between atoms: N_60  and  CA_61 
REMARK   25  A    between atoms: CA_61  and  C_66 
REMARK   26  A    between atoms: CA_61  and  CB_62 
REMARK   27  A    between atoms: CB_62  and  CG_63 
REMARK       I    between atoms: C_66  and  N_68 
REMARK   28  A    between atoms: N_68  and  CA_69 
REMARK   29  A    between atoms: CA_69  and  CB_70 
REMARK   30  A    between atoms: CA_69  and  C_77 
REMARK   31  A    between atoms: CB_70  and  CG_71 
REMARK       I    between atoms: C_77  and  N_79 
REMARK   32  A    between atoms: N_79  and  CA_80 
REMARK   33  A    between atoms: CA_80  and  CB_81 
REMARK   34  A    between atoms: CA_80  and  C_91 
REMARK   35  A    between atoms: CB_81  and  CG_82 
REMARK       I    between atoms: C_91  and  N_93 
REMARK   36  A    between atoms: N_93  and  CA_94 
REMARK   37  A    between atoms: CA_94  and  C_95 
REMARK       I    between atoms: C_95  and  N_97 
REMARK   38  A    between atoms: N_97  and  CA_98 
REMARK   39  A    between atoms: CA_98  and  C_101 
REMARK   40  A    between atoms: CA_98  and  CB_99 
REMARK       I    between atoms: C_101  and  N_103 
REMARK   41  A    between atoms: N_103  and  CA_104 
REMARK   42  A    between atoms: CA_104  and  C_105 
ROOT
ATOM      1  CA  ARG     6      -4.004 -22.375   1.962  1.00  0.00     0.186 C 
ENDROOT
BRANCH   1   2
ATOM      2  N   ARG     6      -5.183 -21.993   2.773  1.00  0.00    -0.229 NA
ATOM      3  C   TYR     5      -5.349 -20.757   3.261  1.00  0.00     0.275 C 
ATOM      4  O   TYR     5      -4.547 -19.849   3.040  1.00  0.00    -0.268 OA
BRANCH   3   5
ATOM      5  CA  TYR     5      -6.653 -20.473   4.024  1.00  0.00     0.191 C 
BRANCH   5   6
ATOM      6  N   TYR     5      -6.814 -19.049   4.416  1.00  0.00    -0.228 NA
ATOM      7  C   GLU     4      -7.010 -18.654   5.684  1.00  0.00     0.274 C 
ATOM      8  O   GLU     4      -6.933 -19.423   6.634  1.00  0.00    -0.268 OA
BRANCH   7   9
ATOM      9  CA  GLU     4      -7.014 -17.131   5.927  1.00  0.00     0.187 C 
BRANCH   9  10
ATOM     10  CB  GLU     4      -7.252 -16.392   4.600  1.00  0.00     0.045 C 
BRANCH  10  11
ATOM     11  CG  GLU     4      -7.497 -14.871   4.699  1.00  0.00     0.100 C 
BRANCH  11  12
ATOM     12  CD  GLU     4      -8.324 -14.290   3.553  1.00  0.00     0.185 C 
ATOM     13  OE1 GLU     4      -8.990 -13.248   3.790  1.00  0.00    -0.647 OA
ATOM     14  OE2 GLU     4      -8.670 -15.083   2.654  1.00  0.00    -0.647 OA
ENDBRANCH  11  12
ENDBRANCH  10  11
ENDBRANCH   9  10
BRANCH   9  15
ATOM     15  N   GLU     4      -5.760 -16.634   6.525  1.00  0.00    -0.229 NA
ATOM     16  C   PRO     3      -5.533 -16.292   7.788  1.00  0.00     0.272 C 
ATOM     17  O   PRO     3      -6.223 -16.686   8.729  1.00  0.00    -0.269 OA
BRANCH  16  18
ATOM     18  CA  PRO     3      -4.113 -15.808   8.088  1.00  0.00     0.165 C 
ATOM     19  N   PRO     3      -3.038 -16.622   7.480  1.00  0.00    -0.312 N 
ATOM     20  CD  PRO     3      -1.965 -15.730   6.971  1.00  0.00     0.105 C 
ATOM     21  C   ASP     2      -2.989 -17.965   7.536  1.00  0.00     0.257 C 
ATOM     22  CG  PRO     3      -2.345 -14.338   7.500  1.00  0.00     0.027 C 
ATOM     23  CB  PRO     3      -3.868 -14.387   7.588  1.00  0.00     0.034 C 
ATOM     24  O   ASP     2      -3.747 -18.588   8.295  1.00  0.00    -0.270 OA
BRANCH  21  25
ATOM     25  CA  ASP     2      -1.772 -18.707   6.939  1.00  0.00     0.195 C 
BRANCH  25  26
ATOM     26  CB  ASP     2      -2.048 -19.602   5.704  1.00  0.00     0.132 C 
BRANCH  26  27
ATOM     27  CG  ASP     2      -2.517 -21.001   6.147  1.00  0.00     0.188 C 
ATOM     28  OD2 ASP     2      -1.752 -21.950   5.841  1.00  0.00    -0.647 OA
ATOM     29  OD1 ASP     2      -3.758 -21.182   6.222  1.00  0.00    -0.647 OA
ENDBRANCH  26  27
ENDBRANCH  25  26
BRANCH  25  30
ATOM     30  N   ASP     2      -1.180 -19.659   7.896  1.00  0.00    -0.228 NA
ATOM     31  C   TYR     1      -0.241 -19.404   8.777  1.00  0.00     0.289 C 
ATOM     32  O   TYR     1       0.240 -18.308   9.081  1.00  0.00    -0.268 OA
BRANCH  31  33
ATOM     33  CA  TYR     1       0.276 -20.675   9.443  1.00  0.00     0.385 C 
ATOM     34  N   TYR     1      -0.637 -21.774   9.088  1.00  0.00     0.626 N 
BRANCH  33  35
ATOM     35  CB  TYR     1       1.697 -20.909   8.937  1.00  0.00     0.075 C 
BRANCH  35  36
ATOM     36  CG  TYR     1       1.745 -21.725   7.636  1.00  0.00    -0.019 A 
ATOM     37  CD2 TYR     1       1.751 -23.111   7.653  1.00  0.00    -0.002 A 
ATOM     38  CE2 TYR     1       1.657 -23.823   6.466  1.00  0.00     0.027 A 
ATOM     39  CZ  TYR     1       1.565 -23.128   5.261  1.00  0.00     0.131 A 
ATOM     40  CE1 TYR     1       1.602 -21.745   5.249  1.00  0.00     0.027 A 
ATOM     41  OH  TYR     1       1.286 -23.786   4.118  1.00  0.00    -0.190 OA
ATOM     42  CD1 TYR     1       1.695 -21.033   6.435  1.00  0.00    -0.002 A 
ENDBRANCH  35  36
ENDBRANCH  33  35
ENDBRANCH  31  33
ENDBRANCH  25  30
ENDBRANCH  21  25
ENDBRANCH  16  18
ENDBRANCH   9  15
ENDBRANCH   7   9
ENDBRANCH   5   6
BRANCH   5  43
ATOM     43  CB  TYR     5      -7.876 -20.939   3.215  1.00  0.00     0.060 C 
BRANCH  43  44
ATOM     44  CG  TYR     5      -9.144 -21.036   4.078  1.00  0.00    -0.020 A 
ATOM     45  CD2 TYR     5      -9.399 -22.173   4.834  1.00  0.00    -0.002 A 
ATOM     46  CE2 TYR     5     -10.546 -22.250   5.618  1.00  0.00     0.027 A 
ATOM     47  CZ  TYR     5     -11.439 -21.189   5.647  1.00  0.00     0.131 A 
ATOM     48  CE1 TYR     5     -11.182 -20.040   4.907  1.00  0.00     0.027 A 
ATOM     49  OH  TYR     5     -12.619 -21.309   6.292  1.00  0.00    -0.190 OA
ATOM     50  CD1 TYR     5     -10.036 -19.970   4.114  1.00  0.00    -0.002 A 
ENDBRANCH  43  44
ENDBRANCH   5  43
ENDBRANCH   3   5
ENDBRANCH   1   2
BRANCH   1  51
ATOM     51  CB  ARG     6      -2.988 -23.202   2.743  1.00  0.00     0.036 C 
BRANCH  51  52
ATOM     52  CG  ARG     6      -3.612 -24.061   3.846  1.00  0.00     0.029 C 
BRANCH  52  53
ATOM     53  CD  ARG     6      -2.648 -25.165   4.269  1.00  0.00     0.145 C 
BRANCH  53  54
ATOM     54  NE  ARG     6      -2.401 -25.124   5.720  1.00  0.00    -0.083 NA
ATOM     55  CZ  ARG     6      -1.472 -25.845   6.376  1.00  0.00     0.782 C 
ATOM     56  NH2 ARG     6      -1.389 -25.793   7.707  1.00  0.00     0.063 N 
ATOM     57  NH1 ARG     6      -0.683 -26.684   5.713  1.00  0.00     0.063 N 
ENDBRANCH  53  54
ENDBRANCH  52  53
ENDBRANCH  51  52
ENDBRANCH   1  51
BRANCH   1  58
ATOM     58  C   ARG     6      -4.385 -23.202   0.727  1.00  0.00     0.274 C 
ATOM     59  N   ASN     7      -4.477 -24.515   0.917  1.00  0.00    -0.228 NA
ATOM     60  O   ARG     6      -4.577 -22.627  -0.346  1.00  0.00    -0.268 OA
BRANCH  59  61
ATOM     61  CA  ASN     7      -4.926 -25.460  -0.126  1.00  0.00     0.196 C 
BRANCH  61  62
ATOM     62  C   ASN     7      -6.216 -26.193   0.290  1.00  0.00     0.275 C 
ATOM     63  N   PHE     8      -6.483 -26.256   1.603  1.00  0.00    -0.228 NA
ATOM     64  O   ASN     7      -7.080 -26.319  -0.557  1.00  0.00    -0.268 OA
BRANCH  63  65
ATOM     65  CA  PHE     8      -7.712 -26.841   2.193  1.00  0.00     0.191 C 
BRANCH  65  66
ATOM     66  CB  PHE     8      -7.295 -27.845   3.276  1.00  0.00     0.060 C 
BRANCH  66  67
ATOM     67  CG  PHE     8      -7.672 -29.306   2.969  1.00  0.00    -0.020 A 
ATOM     68  CD1 PHE     8      -8.653 -29.585   2.027  1.00  0.00    -0.004 A 
ATOM     69  CE1 PHE     8      -9.066 -30.901   1.824  1.00  0.00    -0.000 A 
ATOM     70  CZ  PHE     8      -8.484 -31.925   2.553  1.00  0.00    -0.000 A 
ATOM     71  CE2 PHE     8      -7.491 -31.650   3.488  1.00  0.00    -0.000 A 
ATOM     72  CD2 PHE     8      -7.078 -30.333   3.691  1.00  0.00    -0.004 A 
ENDBRANCH  66  67
ENDBRANCH  65  66
BRANCH  65  73
ATOM     73  C   PHE     8      -8.732 -25.811   2.730  1.00  0.00     0.275 C 
ATOM     74  N   TRP     9      -9.919 -26.291   3.102  1.00  0.00    -0.228 NA
ATOM     75  O   PHE     8      -8.547 -24.601   2.582  1.00  0.00    -0.268 OA
BRANCH  74  76
ATOM     76  CA  TRP     9     -10.946 -25.438   3.749  1.00  0.00     0.191 C 
BRANCH  76  77
ATOM     77  CB  TRP     9     -12.040 -25.111   2.719  1.00  0.00     0.062 C 
BRANCH  77  78
ATOM     78  CG  TRP     9     -12.513 -23.659   2.783  1.00  0.00     0.001 A 
ATOM     79  CD1 TRP     9     -13.666 -23.235   3.290  1.00  0.00     0.095 A 
ATOM     80  NE1 TRP     9     -13.883 -21.978   2.922  1.00  0.00    -0.244 NA
ATOM     81  CE2 TRP     9     -12.868 -21.551   2.186  1.00  0.00     0.081 A 
ATOM     82  CD2 TRP     9     -11.972 -22.601   2.059  1.00  0.00     0.015 A 
ATOM     83  CZ2 TRP     9     -12.638 -20.366   1.488  1.00  0.00     0.019 A 
ATOM     84  CE3 TRP     9     -10.860 -22.491   1.237  1.00  0.00     0.001 A 
ATOM     85  CZ3 TRP     9     -10.636 -21.314   0.530  1.00  0.00     0.000 A 
ATOM     86  CH2 TRP     9     -11.520 -20.247   0.676  1.00  0.00     0.002 A 
ENDBRANCH  77  78
ENDBRANCH  76  77
BRANCH  76  87
ATOM     87  C   TRP     9     -11.543 -26.025   5.048  1.00  0.00     0.275 C 
ATOM     88  O   TRP     9     -12.581 -26.679   5.024  1.00  0.00    -0.268 OA
ATOM     89  N   GLY    10     -10.818 -25.865   6.154  1.00  0.00    -0.226 NA
BRANCH  89  90
ATOM     90  CA  GLY    10     -11.201 -26.395   7.491  1.00  0.00     0.218 C 
BRANCH  90  91
ATOM     91  C   GLY    10     -10.080 -27.060   8.308  1.00  0.00     0.277 C 
ATOM     92  N   CYS    11      -9.270 -27.854   7.610  1.00  0.00    -0.228 NA
ATOM     93  O   GLY    10     -10.070 -26.982   9.531  1.00  0.00    -0.268 OA
BRANCH  92  94
ATOM     94  CA  CYS    11      -8.102 -28.599   8.131  1.00  0.00     0.198 C 
BRANCH  94  95
ATOM     95  C   CYS    11      -6.827 -27.835   7.722  1.00  0.00     0.275 C 
ATOM     96  O   CYS    11      -6.259 -28.140   6.679  1.00  0.00    -0.268 OA
ATOM     97  N   GLY    12      -6.315 -27.024   8.636  1.00  0.00    -0.225 NA
BRANCH  97  98
ATOM     98  CA  GLY    12      -5.095 -26.234   8.414  1.00  0.00     0.226 C 
BRANCH  98  99
ATOM     99  C   GLY    12      -5.513 -24.762   8.188  1.00  0.00     0.211 C 
ATOM    100  O1  GLY    12      -4.588 -23.942   7.961  1.00  0.00    -0.646 OA
ATOM    101  O2  GLY    12      -6.728 -24.495   8.209  1.00  0.00    -0.646 OA
ENDBRANCH  98  99
ENDBRANCH  97  98
ENDBRANCH  94  95
BRANCH  94 102
ATOM    102  CB  CYS    11      -8.001 -29.962   7.451  1.00  0.00     0.103 C 
ATOM    103  SG  CYS    11      -7.520 -31.368   8.527  1.00  0.00    -0.080 SA
ENDBRANCH  94 102
ENDBRANCH  92  94
ENDBRANCH  90  91
ENDBRANCH  89  90
ENDBRANCH  76  87
ENDBRANCH  74  76
ENDBRANCH  65  73
ENDBRANCH  63  65
ENDBRANCH  61  62
BRANCH  61 104
ATOM    104  CB  ASN     7      -3.821 -26.462  -0.483  1.00  0.00     0.126 C 
BRANCH 104 105
ATOM    105  CG  ASN     7      -2.774 -26.692   0.623  1.00  0.00     0.276 C 
ATOM    106  ND2 ASN     7      -3.104 -27.553   1.558  1.00  0.00    -0.107 N 
ATOM    107  OD1 ASN     7      -1.754 -26.032   0.773  1.00  0.00    -0.269 OA
ENDBRANCH 104 105
ENDBRANCH  61 104
ENDBRANCH  59  61
ENDBRANCH   1  58
TORSDOF 42
ENDMDL
MODEL 5
REMARK VINA RESULT:      -6.1     18.498     22.788
REMARK WARNING: 32 MAX_TORS EXCEEDED!!!
REMARK  42 active torsions:
REMARK  status: ('A' for Active; 'I' for Inactive)
REMARK    1  A    between atoms: CA_2  and  CB_3 
REMARK    2  A    between atoms: CA_2  and  C_11 
REMARK    3  A    between atoms: CB_3  and  CG_4 
REMARK       I    between atoms: C_11  and  N_13 
REMARK    4  A    between atoms: N_13  and  CA_14 
REMARK    5  A    between atoms: CA_14  and  CB_15 
REMARK    6  A    between atoms: CA_14  and  C_19 
REMARK    7  A    between atoms: CB_15  and  CG_16 
REMARK       I    between atoms: C_19  and  N_21 
REMARK    8  A    between atoms: CA_22  and  C_26 
REMARK       I    between atoms: C_26  and  N_28 
REMARK    9  A    between atoms: N_28  and  CA_29 
REMARK   10  A    between atoms: CA_29  and  C_35 
REMARK   11  A    between atoms: CA_29  and  CB_30 
REMARK   12  A    between atoms: CB_30  and  CG_31 
REMARK   13  A    between atoms: CG_31  and  CD_32 
REMARK       I    between atoms: C_35  and  N_37 
REMARK   14  A    between atoms: N_37  and  CA_38 
REMARK   15  A    between atoms: CA_38  and  CB_39 
REMARK   16  A    between atoms: CA_38  and  C_47 
REMARK   17  A    between atoms: CB_39  and  CG_40 
REMARK       I    between atoms: C_47  and  N_49 
REMARK   18  A    between atoms: N_49  and  CA_50 
REMARK   19  A    between atoms: CA_50  and  CB_51 
REMARK   20  A    between atoms: CA_50  and  C_58 
REMARK   21  A    between atoms: CB_51  and  CG_52 
REMARK   22  A    between atoms: CG_52  and  CD_53 
REMARK   23  A    between atoms: CD_53  and  NE_54 
REMARK       I    between atoms: C_58  and  N_60 
REMARK   24  A    between atoms: N_60  and  CA_61 
REMARK   25  A    between atoms: CA_61  and  C_66 
REMARK   26  A    between atoms: CA_61  and  CB_62 
REMARK   27  A    between atoms: CB_62  and  CG_63 
REMARK       I    between atoms: C_66  and  N_68 
REMARK   28  A    between atoms: N_68  and  CA_69 
REMARK   29  A    between atoms: CA_69  and  CB_70 
REMARK   30  A    between atoms: CA_69  and  C_77 
REMARK   31  A    between atoms: CB_70  and  CG_71 
REMARK       I    between atoms: C_77  and  N_79 
REMARK   32  A    between atoms: N_79  and  CA_80 
REMARK   33  A    between atoms: CA_80  and  CB_81 
REMARK   34  A    between atoms: CA_80  and  C_91 
REMARK   35  A    between atoms: CB_81  and  CG_82 
REMARK       I    between atoms: C_91  and  N_93 
REMARK   36  A    between atoms: N_93  and  CA_94 
REMARK   37  A    between atoms: CA_94  and  C_95 
REMARK       I    between atoms: C_95  and  N_97 
REMARK   38  A    between atoms: N_97  and  CA_98 
REMARK   39  A    between atoms: CA_98  and  C_101 
REMARK   40  A    between atoms: CA_98  and  CB_99 
REMARK       I    between atoms: C_101  and  N_103 
REMARK   41  A    between atoms: N_103  and  CA_104 
REMARK   42  A    between atoms: CA_104  and  C_105 
ROOT
ATOM      1  CA  ARG     6      -1.089 -18.608   7.320  1.00  0.00     0.186 C 
ENDROOT
BRANCH   1   2
ATOM      2  N   ARG     6      -2.212 -19.473   6.890  1.00  0.00    -0.229 NA
ATOM      3  C   TYR     5      -2.521 -20.614   7.519  1.00  0.00     0.275 C 
ATOM      4  O   TYR     5      -1.909 -21.004   8.514  1.00  0.00    -0.268 OA
BRANCH   3   5
ATOM      5  CA  TYR     5      -3.756 -21.379   7.017  1.00  0.00     0.191 C 
BRANCH   5   6
ATOM      6  N   TYR     5      -3.605 -21.910   5.637  1.00  0.00    -0.228 NA
ATOM      7  C   GLU     4      -4.410 -21.556   4.622  1.00  0.00     0.274 C 
ATOM      8  O   GLU     4      -5.243 -20.663   4.720  1.00  0.00    -0.268 OA
BRANCH   7   9
ATOM      9  CA  GLU     4      -4.021 -22.094   3.230  1.00  0.00     0.187 C 
BRANCH   9  10
ATOM     10  CB  GLU     4      -4.848 -21.383   2.146  1.00  0.00     0.045 C 
BRANCH  10  11
ATOM     11  CG  GLU     4      -5.488 -22.288   1.071  1.00  0.00     0.100 C 
BRANCH  11  12
ATOM     12  CD  GLU     4      -7.012 -22.378   1.149  1.00  0.00     0.185 C 
ATOM     13  OE1 GLU     4      -7.670 -21.826   0.229  1.00  0.00    -0.647 OA
ATOM     14  OE2 GLU     4      -7.506 -22.547   2.281  1.00  0.00    -0.647 OA
ENDBRANCH  11  12
ENDBRANCH  10  11
ENDBRANCH   9  10
BRANCH   9  15
ATOM     15  N   GLU     4      -4.217 -23.550   3.093  1.00  0.00    -0.229 NA
ATOM     16  C   PRO     3      -3.309 -24.513   3.197  1.00  0.00     0.272 C 
ATOM     17  O   PRO     3      -2.238 -24.371   3.790  1.00  0.00    -0.269 OA
BRANCH  16  18
ATOM     18  CA  PRO     3      -3.839 -25.934   2.997  1.00  0.00     0.165 C 
ATOM     19  N   PRO     3      -5.089 -26.240   3.726  1.00  0.00    -0.312 N 
ATOM     20  CD  PRO     3      -5.983 -27.053   2.863  1.00  0.00     0.105 C 
ATOM     21  C   ASP     2      -5.292 -25.950   5.024  1.00  0.00     0.257 C 
ATOM     22  CG  PRO     3      -5.115 -27.411   1.647  1.00  0.00     0.027 C 
ATOM     23  CB  PRO     3      -4.148 -26.236   1.533  1.00  0.00     0.034 C 
ATOM     24  O   ASP     2      -4.346 -25.595   5.742  1.00  0.00    -0.270 OA
BRANCH  21  25
ATOM     25  CA  ASP     2      -6.607 -26.394   5.705  1.00  0.00     0.195 C 
BRANCH  25  26
ATOM     26  CB  ASP     2      -7.781 -25.383   5.661  1.00  0.00     0.132 C 
BRANCH  26  27
ATOM     27  CG  ASP     2      -9.118 -26.120   5.457  1.00  0.00     0.188 C 
ATOM     28  OD2 ASP     2      -9.908 -26.089   6.434  1.00  0.00    -0.647 OA
ATOM     29  OD1 ASP     2      -9.105 -27.107   4.680  1.00  0.00    -0.647 OA
ENDBRANCH  26  27
ENDBRANCH  25  26
BRANCH  25  30
ATOM     30  N   ASP     2      -6.433 -26.616   7.151  1.00  0.00    -0.228 NA
ATOM     31  C   TYR     1      -6.798 -27.678   7.830  1.00  0.00     0.289 C 
ATOM     32  O   TYR     1      -7.230 -28.750   7.393  1.00  0.00    -0.268 OA
BRANCH  31  33
ATOM     33  CA  TYR     1      -6.659 -27.469   9.335  1.00  0.00     0.385 C 
ATOM     34  N   TYR     1      -5.595 -28.365   9.819  1.00  0.00     0.626 N 
BRANCH  33  35
ATOM     35  CB  TYR     1      -6.330 -25.996   9.561  1.00  0.00     0.075 C 
BRANCH  35  36
ATOM     36  CG  TYR     1      -7.454 -25.232  10.278  1.00  0.00    -0.019 A 
ATOM     37  CD2 TYR     1      -8.569 -24.775   9.592  1.00  0.00    -0.002 A 
ATOM     38  CE2 TYR     1      -9.630 -24.210  10.283  1.00  0.00     0.027 A 
ATOM     39  CZ  TYR     1      -9.556 -24.101  11.671  1.00  0.00     0.131 A 
ATOM     40  CE1 TYR     1      -8.424 -24.521  12.345  1.00  0.00     0.027 A 
ATOM     41  OH  TYR     1     -10.641 -23.731  12.381  1.00  0.00    -0.190 OA
ATOM     42  CD1 TYR     1      -7.363 -25.087  11.654  1.00  0.00    -0.002 A 
ENDBRANCH  35  36
ENDBRANCH  33  35
ENDBRANCH  31  33
ENDBRANCH  25  30
ENDBRANCH  21  25
ENDBRANCH  16  18
ENDBRANCH   9  15
ENDBRANCH   7   9
ENDBRANCH   5   6
BRANCH   5  43
ATOM     43  CB  TYR     5      -4.127 -22.518   7.982  1.00  0.00     0.060 C 
BRANCH  43  44
ATOM     44  CG  TYR     5      -5.204 -22.096   8.995  1.00  0.00    -0.020 A 
ATOM     45  CD2 TYR     5      -4.955 -22.162  10.360  1.00  0.00    -0.002 A 
ATOM     46  CE2 TYR     5      -5.933 -21.771  11.270  1.00  0.00     0.027 A 
ATOM     47  CZ  TYR     5      -7.160 -21.314  10.814  1.00  0.00     0.131 A 
ATOM     48  CE1 TYR     5      -7.411 -21.228   9.449  1.00  0.00     0.027 A 
ATOM     49  OH  TYR     5      -8.161 -21.066  11.687  1.00  0.00    -0.190 OA
ATOM     50  CD1 TYR     5      -6.432 -21.628   8.540  1.00  0.00    -0.002 A 
ENDBRANCH  43  44
ENDBRANCH   5  43
ENDBRANCH   3   5
ENDBRANCH   1   2
BRANCH   1  51
ATOM     51  CB  ARG     6      -0.270 -18.072   6.149  1.00  0.00     0.036 C 
BRANCH  51  52
ATOM     52  CG  ARG     6       1.110 -18.720   6.017  1.00  0.00     0.029 C 
BRANCH  52  53
ATOM     53  CD  ARG     6       1.281 -19.825   7.055  1.00  0.00     0.145 C 
BRANCH  53  54
ATOM     54  NE  ARG     6       2.385 -20.727   6.690  1.00  0.00    -0.083 NA
ATOM     55  CZ  ARG     6       3.563 -20.821   7.337  1.00  0.00     0.782 C 
ATOM     56  NH2 ARG     6       4.530 -21.614   6.870  1.00  0.00     0.063 N 
ATOM     57  NH1 ARG     6       3.808 -20.061   8.398  1.00  0.00     0.063 N 
ENDBRANCH  53  54
ENDBRANCH  52  53
ENDBRANCH  51  52
ENDBRANCH   1  51
BRANCH   1  58
ATOM     58  C   ARG     6      -1.561 -17.387   8.120  1.00  0.00     0.274 C 
ATOM     59  N   ASN     7      -2.703 -16.839   7.715  1.00  0.00    -0.228 NA
ATOM     60  O   ARG     6      -0.878 -16.986   9.063  1.00  0.00    -0.268 OA
BRANCH  59  61
ATOM     61  CA  ASN     7      -3.364 -15.721   8.419  1.00  0.00     0.196 C 
BRANCH  61  62
ATOM     62  C   ASN     7      -4.876 -15.970   8.586  1.00  0.00     0.275 C 
ATOM     63  N   PHE     8      -5.248 -17.189   9.006  1.00  0.00    -0.228 NA
ATOM     64  O   ASN     7      -5.589 -14.993   8.709  1.00  0.00    -0.268 OA
BRANCH  63  65
ATOM     65  CA  PHE     8      -6.643 -17.593   9.307  1.00  0.00     0.191 C 
BRANCH  65  66
ATOM     66  CB  PHE     8      -7.100 -16.842  10.566  1.00  0.00     0.060 C 
BRANCH  66  67
ATOM     67  CG  PHE     8      -7.000 -17.662  11.867  1.00  0.00    -0.020 A 
ATOM     68  CD1 PHE     8      -8.107 -17.780  12.696  1.00  0.00    -0.004 A 
ATOM     69  CE1 PHE     8      -7.988 -18.435  13.922  1.00  0.00    -0.000 A 
ATOM     70  CZ  PHE     8      -6.769 -18.977  14.297  1.00  0.00    -0.000 A 
ATOM     71  CE2 PHE     8      -5.663 -18.871  13.461  1.00  0.00    -0.000 A 
ATOM     72  CD2 PHE     8      -5.781 -18.216  12.235  1.00  0.00    -0.004 A 
ENDBRANCH  66  67
ENDBRANCH  65  66
BRANCH  65  73
ATOM     73  C   PHE     8      -7.641 -17.412   8.141  1.00  0.00     0.275 C 
ATOM     74  N   TRP     9      -7.304 -17.975   6.979  1.00  0.00    -0.228 NA
ATOM     75  O   PHE     8      -8.557 -16.590   8.213  1.00  0.00    -0.268 OA
BRANCH  74  76
ATOM     76  CA  TRP     9      -8.223 -17.986   5.814  1.00  0.00     0.191 C 
BRANCH  76  77
ATOM     77  CB  TRP     9      -7.774 -16.904   4.818  1.00  0.00     0.062 C 
BRANCH  77  78
ATOM     78  CG  TRP     9      -8.711 -15.697   4.777  1.00  0.00     0.001 A 
ATOM     79  CD1 TRP     9     -10.026 -15.736   4.587  1.00  0.00     0.095 A 
ATOM     80  NE1 TRP     9     -10.476 -14.518   4.315  1.00  0.00    -0.244 NA
ATOM     81  CE2 TRP     9      -9.469 -13.658   4.342  1.00  0.00     0.081 A 
ATOM     82  CD2 TRP     9      -8.315 -14.373   4.621  1.00  0.00     0.015 A 
ATOM     83  CZ2 TRP     9      -9.378 -12.298   4.046  1.00  0.00     0.019 A 
ATOM     84  CE3 TRP     9      -7.073 -13.756   4.594  1.00  0.00     0.001 A 
ATOM     85  CZ3 TRP     9      -6.979 -12.403   4.287  1.00  0.00     0.000 A 
ATOM     86  CH2 TRP     9      -8.139 -11.674   4.032  1.00  0.00     0.002 A 
ENDBRANCH  77  78
ENDBRANCH  76  77
BRANCH  76  87
ATOM     87  C   TRP     9      -8.374 -19.363   5.130  1.00  0.00     0.275 C 
ATOM     88  O   TRP     9      -8.320 -19.469   3.908  1.00  0.00    -0.268 OA
ATOM     89  N   GLY    10      -8.462 -20.417   5.941  1.00  0.00    -0.226 NA
BRANCH  89  90
ATOM     90  CA  GLY    10      -8.569 -21.827   5.475  1.00  0.00     0.218 C 
BRANCH  90  91
ATOM     91  C   GLY    10      -9.992 -22.382   5.303  1.00  0.00     0.277 C 
ATOM     92  N   CYS    11     -10.426 -22.440   4.044  1.00  0.00    -0.228 NA
ATOM     93  O   GLY    10     -10.707 -22.580   6.278  1.00  0.00    -0.268 OA
BRANCH  92  94
ATOM     94  CA  CYS    11     -11.738 -22.948   3.586  1.00  0.00     0.198 C 
BRANCH  94  95
ATOM     95  C   CYS    11     -11.595 -24.458   3.308  1.00  0.00     0.275 C 
ATOM     96  O   CYS    11     -10.786 -24.835   2.468  1.00  0.00    -0.268 OA
ATOM     97  N   GLY    12     -12.508 -25.241   3.863  1.00  0.00    -0.225 NA
BRANCH  97  98
ATOM     98  CA  GLY    12     -12.527 -26.701   3.687  1.00  0.00     0.226 C 
BRANCH  98  99
ATOM     99  C   GLY    12     -13.799 -27.249   4.374  1.00  0.00     0.211 C 
ATOM    100  O1  GLY    12     -14.694 -26.412   4.654  1.00  0.00    -0.646 OA
ATOM    101  O2  GLY    12     -13.869 -28.476   4.571  1.00  0.00    -0.646 OA
ENDBRANCH  98  99
ENDBRANCH  97  98
ENDBRANCH  94  95
BRANCH  94 102
ATOM    102  CB  CYS    11     -12.108 -22.316   2.246  1.00  0.00     0.103 C 
ATOM    103  SG  CYS    11     -11.103 -20.872   1.729  1.00  0.00    -0.080 SA
ENDBRANCH  94 102
ENDBRANCH  92  94
ENDBRANCH  90  91
ENDBRANCH  89  90
ENDBRANCH  76  87
ENDBRANCH  74  76
ENDBRANCH  65  73
ENDBRANCH  63  65
ENDBRANCH  61  62
BRANCH  61 104
ATOM    104  CB  ASN     7      -3.107 -14.386   7.709  1.00  0.00     0.126 C 
BRANCH 104 105
ATOM    105  CG  ASN     7      -2.526 -13.277   8.606  1.00  0.00     0.276 C 
ATOM    106  ND2 ASN     7      -1.461 -13.599   9.304  1.00  0.00    -0.107 N 
ATOM    107  OD1 ASN     7      -3.063 -12.199   8.828  1.00  0.00    -0.269 OA
ENDBRANCH 104 105
ENDBRANCH  61 104
ENDBRANCH  59  61
ENDBRANCH   1  58
TORSDOF 42
ENDMDL
MODEL 6
REMARK VINA RESULT:      -6.1     19.287     24.857
REMARK WARNING: 32 MAX_TORS EXCEEDED!!!
REMARK  42 active torsions:
REMARK  status: ('A' for Active; 'I' for Inactive)
REMARK    1  A    between atoms: CA_2  and  CB_3 
REMARK    2  A    between atoms: CA_2  and  C_11 
REMARK    3  A    between atoms: CB_3  and  CG_4 
REMARK       I    between atoms: C_11  and  N_13 
REMARK    4  A    between atoms: N_13  and  CA_14 
REMARK    5  A    between atoms: CA_14  and  CB_15 
REMARK    6  A    between atoms: CA_14  and  C_19 
REMARK    7  A    between atoms: CB_15  and  CG_16 
REMARK       I    between atoms: C_19  and  N_21 
REMARK    8  A    between atoms: CA_22  and  C_26 
REMARK       I    between atoms: C_26  and  N_28 
REMARK    9  A    between atoms: N_28  and  CA_29 
REMARK   10  A    between atoms: CA_29  and  C_35 
REMARK   11  A    between atoms: CA_29  and  CB_30 
REMARK   12  A    between atoms: CB_30  and  CG_31 
REMARK   13  A    between atoms: CG_31  and  CD_32 
REMARK       I    between atoms: C_35  and  N_37 
REMARK   14  A    between atoms: N_37  and  CA_38 
REMARK   15  A    between atoms: CA_38  and  CB_39 
REMARK   16  A    between atoms: CA_38  and  C_47 
REMARK   17  A    between atoms: CB_39  and  CG_40 
REMARK       I    between atoms: C_47  and  N_49 
REMARK   18  A    between atoms: N_49  and  CA_50 
REMARK   19  A    between atoms: CA_50  and  CB_51 
REMARK   20  A    between atoms: CA_50  and  C_58 
REMARK   21  A    between atoms: CB_51  and  CG_52 
REMARK   22  A    between atoms: CG_52  and  CD_53 
REMARK   23  A    between atoms: CD_53  and  NE_54 
REMARK       I    between atoms: C_58  and  N_60 
REMARK   24  A    between atoms: N_60  and  CA_61 
REMARK   25  A    between atoms: CA_61  and  C_66 
REMARK   26  A    between atoms: CA_61  and  CB_62 
REMARK   27  A    between atoms: CB_62  and  CG_63 
REMARK       I    between atoms: C_66  and  N_68 
REMARK   28  A    between atoms: N_68  and  CA_69 
REMARK   29  A    between atoms: CA_69  and  CB_70 
REMARK   30  A    between atoms: CA_69  and  C_77 
REMARK   31  A    between atoms: CB_70  and  CG_71 
REMARK       I    between atoms: C_77  and  N_79 
REMARK   32  A    between atoms: N_79  and  CA_80 
REMARK   33  A    between atoms: CA_80  and  CB_81 
REMARK   34  A    between atoms: CA_80  and  C_91 
REMARK   35  A    between atoms: CB_81  and  CG_82 
REMARK       I    between atoms: C_91  and  N_93 
REMARK   36  A    between atoms: N_93  and  CA_94 
REMARK   37  A    between atoms: CA_94  and  C_95 
REMARK       I    between atoms: C_95  and  N_97 
REMARK   38  A    between atoms: N_97  and  CA_98 
REMARK   39  A    between atoms: CA_98  and  C_101 
REMARK   40  A    between atoms: CA_98  and  CB_99 
REMARK       I    between atoms: C_101  and  N_103 
REMARK   41  A    between atoms: N_103  and  CA_104 
REMARK   42  A    between atoms: CA_104  and  C_105 
ROOT
ATOM      1  CA  ARG     6      -6.993 -17.236   4.965  1.00  0.00     0.186 C 
ENDROOT
BRANCH   1   2
ATOM      2  N   ARG     6      -7.333 -18.550   4.372  1.00  0.00    -0.229 NA
ATOM      3  C   TYR     5      -6.397 -19.427   3.984  1.00  0.00     0.275 C 
ATOM      4  O   TYR     5      -5.193 -19.209   4.122  1.00  0.00    -0.268 OA
BRANCH   3   5
ATOM      5  CA  TYR     5      -6.886 -20.784   3.454  1.00  0.00     0.191 C 
BRANCH   5   6
ATOM      6  N   TYR     5      -5.803 -21.792   3.316  1.00  0.00    -0.228 NA
ATOM      7  C   GLU     4      -5.579 -22.479   2.183  1.00  0.00     0.274 C 
ATOM      8  O   GLU     4      -6.159 -22.229   1.134  1.00  0.00    -0.268 OA
BRANCH   7   9
ATOM      9  CA  GLU     4      -4.327 -23.379   2.173  1.00  0.00     0.187 C 
BRANCH   9  10
ATOM     10  CB  GLU     4      -3.902 -23.666   0.724  1.00  0.00     0.045 C 
BRANCH  10  11
ATOM     11  CG  GLU     4      -2.409 -23.992   0.501  1.00  0.00     0.100 C 
BRANCH  11  12
ATOM     12  CD  GLU     4      -2.081 -25.484   0.520  1.00  0.00     0.185 C 
ATOM     13  OE1 GLU     4      -2.907 -26.264  -0.022  1.00  0.00    -0.647 OA
ATOM     14  OE2 GLU     4      -1.323 -25.880   1.428  1.00  0.00    -0.647 OA
ENDBRANCH  11  12
ENDBRANCH  10  11
ENDBRANCH   9  10
BRANCH   9  15
ATOM     15  N   GLU     4      -4.528 -24.665   2.869  1.00  0.00    -0.229 NA
ATOM     16  C   PRO     3      -3.894 -25.125   3.940  1.00  0.00     0.272 C 
ATOM     17  O   PRO     3      -3.300 -24.399   4.739  1.00  0.00    -0.269 OA
BRANCH  16  18
ATOM     18  CA  PRO     3      -4.340 -26.509   4.419  1.00  0.00     0.165 C 
ATOM     19  N   PRO     3      -5.802 -26.675   4.563  1.00  0.00    -0.312 N 
ATOM     20  CD  PRO     3      -6.202 -28.018   4.072  1.00  0.00     0.105 C 
ATOM     21  C   ASP     2      -6.600 -25.793   5.192  1.00  0.00     0.257 C 
ATOM     22  CG  PRO     3      -4.871 -28.744   3.824  1.00  0.00     0.027 C 
ATOM     23  CB  PRO     3      -3.905 -27.619   3.464  1.00  0.00     0.034 C 
ATOM     24  O   ASP     2      -6.110 -24.883   5.877  1.00  0.00    -0.270 OA
BRANCH  21  25
ATOM     25  CA  ASP     2      -8.103 -26.112   5.358  1.00  0.00     0.195 C 
BRANCH  25  26
ATOM     26  CB  ASP     2      -9.091 -25.199   4.587  1.00  0.00     0.132 C 
BRANCH  26  27
ATOM     27  CG  ASP     2     -10.139 -26.048   3.844  1.00  0.00     0.188 C 
ATOM     28  OD2 ASP     2     -11.334 -25.688   3.997  1.00  0.00    -0.647 OA
ATOM     29  OD1 ASP     2      -9.858 -27.259   3.661  1.00  0.00    -0.647 OA
ENDBRANCH  26  27
ENDBRANCH  25  26
BRANCH  25  30
ATOM     30  N   ASP     2      -8.550 -25.957   6.753  1.00  0.00    -0.228 NA
ATOM     31  C   TYR     1      -9.037 -26.897   7.530  1.00  0.00     0.289 C 
ATOM     32  O   TYR     1      -9.094 -28.111   7.311  1.00  0.00    -0.268 OA
BRANCH  31  33
ATOM     33  CA  TYR     1      -9.596 -26.329   8.831  1.00  0.00     0.385 C 
ATOM     34  N   TYR     1      -8.601 -26.567   9.891  1.00  0.00     0.626 N 
BRANCH  33  35
ATOM     35  CB  TYR     1      -9.862 -24.843   8.603  1.00  0.00     0.075 C 
BRANCH  35  36
ATOM     36  CG  TYR     1     -11.347 -24.529   8.366  1.00  0.00    -0.019 A 
ATOM     37  CD2 TYR     1     -12.270 -24.578   9.400  1.00  0.00    -0.002 A 
ATOM     38  CE2 TYR     1     -13.575 -24.159   9.190  1.00  0.00     0.027 A 
ATOM     39  CZ  TYR     1     -13.946 -23.696   7.929  1.00  0.00     0.131 A 
ATOM     40  CE1 TYR     1     -13.032 -23.688   6.891  1.00  0.00     0.027 A 
ATOM     41  OH  TYR     1     -15.147 -23.111   7.747  1.00  0.00    -0.190 OA
ATOM     42  CD1 TYR     1     -11.726 -24.107   7.101  1.00  0.00    -0.002 A 
ENDBRANCH  35  36
ENDBRANCH  33  35
ENDBRANCH  31  33
ENDBRANCH  25  30
ENDBRANCH  21  25
ENDBRANCH  16  18
ENDBRANCH   9  15
ENDBRANCH   7   9
ENDBRANCH   5   6
BRANCH   5  43
ATOM     43  CB  TYR     5      -8.017 -21.343   4.333  1.00  0.00     0.060 C 
BRANCH  43  44
ATOM     44  CG  TYR     5      -9.329 -21.525   3.552  1.00  0.00    -0.020 A 
ATOM     45  CD2 TYR     5      -9.376 -21.286   2.184  1.00  0.00    -0.002 A 
ATOM     46  CE2 TYR     5     -10.566 -21.460   1.484  1.00  0.00     0.027 A 
ATOM     47  CZ  TYR     5     -11.709 -21.874   2.151  1.00  0.00     0.131 A 
ATOM     48  CE1 TYR     5     -11.666 -22.133   3.517  1.00  0.00     0.027 A 
ATOM     49  OH  TYR     5     -12.896 -21.911   1.509  1.00  0.00    -0.190 OA
ATOM     50  CD1 TYR     5     -10.474 -21.948   4.218  1.00  0.00    -0.002 A 
ENDBRANCH  43  44
ENDBRANCH   5  43
ENDBRANCH   3   5
ENDBRANCH   1   2
BRANCH   1  51
ATOM     51  CB  ARG     6      -7.932 -16.121   4.516  1.00  0.00     0.036 C 
BRANCH  51  52
ATOM     52  CG  ARG     6      -7.493 -14.727   4.971  1.00  0.00     0.029 C 
BRANCH  52  53
ATOM     53  CD  ARG     6      -7.617 -13.730   3.822  1.00  0.00     0.145 C 
BRANCH  53  54
ATOM     54  NE  ARG     6      -8.679 -12.745   4.090  1.00  0.00    -0.083 NA
ATOM     55  CZ  ARG     6      -8.495 -11.421   4.246  1.00  0.00     0.782 C 
ATOM     56  NH2 ARG     6      -9.519 -10.628   4.569  1.00  0.00     0.063 N 
ATOM     57  NH1 ARG     6      -7.276 -10.898   4.165  1.00  0.00     0.063 N 
ENDBRANCH  53  54
ENDBRANCH  52  53
ENDBRANCH  51  52
ENDBRANCH   1  51
BRANCH   1  58
ATOM     58  C   ARG     6      -7.036 -17.255   6.498  1.00  0.00     0.274 C 
ATOM     59  N   ASN     7      -5.858 -17.361   7.107  1.00  0.00    -0.228 NA
ATOM     60  O   ARG     6      -8.124 -17.178   7.070  1.00  0.00    -0.268 OA
BRANCH  59  61
ATOM     61  CA  ASN     7      -5.691 -17.298   8.574  1.00  0.00     0.196 C 
BRANCH  61  62
ATOM     62  C   ASN     7      -6.513 -18.390   9.286  1.00  0.00     0.275 C 
ATOM     63  N   PHE     8      -6.334 -19.652   8.871  1.00  0.00    -0.228 NA
ATOM     64  O   ASN     7      -6.955 -18.121  10.387  1.00  0.00    -0.268 OA
BRANCH  63  65
ATOM     65  CA  PHE     8      -6.966 -20.845   9.486  1.00  0.00     0.191 C 
BRANCH  65  66
ATOM     66  CB  PHE     8      -7.899 -21.484   8.447  1.00  0.00     0.060 C 
BRANCH  66  67
ATOM     67  CG  PHE     8      -9.385 -21.116   8.615  1.00  0.00    -0.020 A 
ATOM     68  CD1 PHE     8     -10.007 -21.290   9.844  1.00  0.00    -0.004 A 
ATOM     69  CE1 PHE     8     -11.376 -21.053   9.968  1.00  0.00    -0.000 A 
ATOM     70  CZ  PHE     8     -12.104 -20.630   8.867  1.00  0.00    -0.000 A 
ATOM     71  CE2 PHE     8     -11.480 -20.442   7.639  1.00  0.00    -0.000 A 
ATOM     72  CD2 PHE     8     -10.111 -20.679   7.514  1.00  0.00    -0.004 A 
ENDBRANCH  66  67
ENDBRANCH  65  66
BRANCH  65  73
ATOM     73  C   PHE     8      -5.978 -21.876  10.077  1.00  0.00     0.275 C 
ATOM     74  N   TRP     9      -5.131 -22.446   9.218  1.00  0.00    -0.228 NA
ATOM     75  O   PHE     8      -6.137 -22.327  11.214  1.00  0.00    -0.268 OA
BRANCH  74  76
ATOM     76  CA  TRP     9      -4.050 -23.358   9.667  1.00  0.00     0.191 C 
BRANCH  76  77
ATOM     77  CB  TRP     9      -4.178 -24.689   8.908  1.00  0.00     0.062 C 
BRANCH  77  78
ATOM     78  CG  TRP     9      -4.759 -25.815   9.763  1.00  0.00     0.001 A 
ATOM     79  CD1 TRP     9      -4.692 -25.904  11.088  1.00  0.00     0.095 A 
ATOM     80  NE1 TRP     9      -5.028 -27.128  11.473  1.00  0.00    -0.244 NA
ATOM     81  CE2 TRP     9      -5.340 -27.857  10.412  1.00  0.00     0.081 A 
ATOM     82  CD2 TRP     9      -5.168 -27.058   9.292  1.00  0.00     0.015 A 
ATOM     83  CZ2 TRP     9      -5.668 -29.202  10.250  1.00  0.00     0.019 A 
ATOM     84  CE3 TRP     9      -5.304 -27.586   8.016  1.00  0.00     0.001 A 
ATOM     85  CZ3 TRP     9      -5.618 -28.931   7.853  1.00  0.00     0.000 A 
ATOM     86  CH2 TRP     9      -5.817 -29.730   8.976  1.00  0.00     0.002 A 
ENDBRANCH  77  78
ENDBRANCH  76  77
BRANCH  76  87
ATOM     87  C   TRP     9      -2.625 -22.771   9.549  1.00  0.00     0.275 C 
ATOM     88  O   TRP     9      -2.388 -21.617   9.896  1.00  0.00    -0.268 OA
ATOM     89  N   GLY    10      -1.672 -23.613   9.152  1.00  0.00    -0.226 NA
BRANCH  89  90
ATOM     90  CA  GLY    10      -0.235 -23.251   9.019  1.00  0.00     0.218 C 
BRANCH  90  91
ATOM     91  C   GLY    10       0.232 -22.813   7.621  1.00  0.00     0.277 C 
ATOM     92  N   CYS    11      -0.245 -21.640   7.210  1.00  0.00    -0.228 NA
ATOM     93  O   GLY    10       0.851 -23.588   6.900  1.00  0.00    -0.268 OA
BRANCH  92  94
ATOM     94  CA  CYS    11       0.054 -20.968   5.925  1.00  0.00     0.198 C 
BRANCH  94  95
ATOM     95  C   CYS    11       0.268 -19.468   6.208  1.00  0.00     0.275 C 
ATOM     96  O   CYS    11       1.216 -18.892   5.686  1.00  0.00    -0.268 OA
ATOM     97  N   GLY    12      -0.483 -18.944   7.166  1.00  0.00    -0.225 NA
BRANCH  97  98
ATOM     98  CA  GLY    12      -0.395 -17.533   7.572  1.00  0.00     0.226 C 
BRANCH  98  99
ATOM     99  C   GLY    12      -1.385 -16.722   6.703  1.00  0.00     0.211 C 
ATOM    100  O1  GLY    12      -0.883 -15.898   5.897  1.00  0.00    -0.646 OA
ATOM    101  O2  GLY    12      -2.599 -16.962   6.832  1.00  0.00    -0.646 OA
ENDBRANCH  98  99
ENDBRANCH  97  98
ENDBRANCH  94  95
BRANCH  94 102
ATOM    102  CB  CYS    11      -1.157 -21.043   4.998  1.00  0.00     0.103 C 
ATOM    103  SG  CYS    11      -2.785 -21.269   5.812  1.00  0.00    -0.080 SA
ENDBRANCH  94 102
ENDBRANCH  92  94
ENDBRANCH  90  91
ENDBRANCH  89  90
ENDBRANCH  76  87
ENDBRANCH  74  76
ENDBRANCH  65  73
ENDBRANCH  63  65
ENDBRANCH  61  62
BRANCH  61 104
ATOM    104  CB  ASN     7      -6.047 -15.907   9.115  1.00  0.00     0.126 C 
BRANCH 104 105
ATOM    105  CG  ASN     7      -4.939 -15.233   9.945  1.00  0.00     0.276 C 
ATOM    106  ND2 ASN     7      -4.228 -14.320   9.324  1.00  0.00    -0.107 N 
ATOM    107  OD1 ASN     7      -4.582 -15.588  11.061  1.00  0.00    -0.269 OA
ENDBRANCH 104 105
ENDBRANCH  61 104
ENDBRANCH  59  61
ENDBRANCH   1  58
TORSDOF 42
ENDMDL
MODEL 7
REMARK VINA RESULT:      -5.9     19.935     25.423
REMARK WARNING: 32 MAX_TORS EXCEEDED!!!
REMARK  42 active torsions:
REMARK  status: ('A' for Active; 'I' for Inactive)
REMARK    1  A    between atoms: CA_2  and  CB_3 
REMARK    2  A    between atoms: CA_2  and  C_11 
REMARK    3  A    between atoms: CB_3  and  CG_4 
REMARK       I    between atoms: C_11  and  N_13 
REMARK    4  A    between atoms: N_13  and  CA_14 
REMARK    5  A    between atoms: CA_14  and  CB_15 
REMARK    6  A    between atoms: CA_14  and  C_19 
REMARK    7  A    between atoms: CB_15  and  CG_16 
REMARK       I    between atoms: C_19  and  N_21 
REMARK    8  A    between atoms: CA_22  and  C_26 
REMARK       I    between atoms: C_26  and  N_28 
REMARK    9  A    between atoms: N_28  and  CA_29 
REMARK   10  A    between atoms: CA_29  and  C_35 
REMARK   11  A    between atoms: CA_29  and  CB_30 
REMARK   12  A    between atoms: CB_30  and  CG_31 
REMARK   13  A    between atoms: CG_31  and  CD_32 
REMARK       I    between atoms: C_35  and  N_37 
REMARK   14  A    between atoms: N_37  and  CA_38 
REMARK   15  A    between atoms: CA_38  and  CB_39 
REMARK   16  A    between atoms: CA_38  and  C_47 
REMARK   17  A    between atoms: CB_39  and  CG_40 
REMARK       I    between atoms: C_47  and  N_49 
REMARK   18  A    between atoms: N_49  and  CA_50 
REMARK   19  A    between atoms: CA_50  and  CB_51 
REMARK   20  A    between atoms: CA_50  and  C_58 
REMARK   21  A    between atoms: CB_51  and  CG_52 
REMARK   22  A    between atoms: CG_52  and  CD_53 
REMARK   23  A    between atoms: CD_53  and  NE_54 
REMARK       I    between atoms: C_58  and  N_60 
REMARK   24  A    between atoms: N_60  and  CA_61 
REMARK   25  A    between atoms: CA_61  and  C_66 
REMARK   26  A    between atoms: CA_61  and  CB_62 
REMARK   27  A    between atoms: CB_62  and  CG_63 
REMARK       I    between atoms: C_66  and  N_68 
REMARK   28  A    between atoms: N_68  and  CA_69 
REMARK   29  A    between atoms: CA_69  and  CB_70 
REMARK   30  A    between atoms: CA_69  and  C_77 
REMARK   31  A    between atoms: CB_70  and  CG_71 
REMARK       I    between atoms: C_77  and  N_79 
REMARK   32  A    between atoms: N_79  and  CA_80 
REMARK   33  A    between atoms: CA_80  and  CB_81 
REMARK   34  A    between atoms: CA_80  and  C_91 
REMARK   35  A    between atoms: CB_81  and  CG_82 
REMARK       I    between atoms: C_91  and  N_93 
REMARK   36  A    between atoms: N_93  and  CA_94 
REMARK   37  A    between atoms: CA_94  and  C_95 
REMARK       I    between atoms: C_95  and  N_97 
REMARK   38  A    between atoms: N_97  and  CA_98 
REMARK   39  A    between atoms: CA_98  and  C_101 
REMARK   40  A    between atoms: CA_98  and  CB_99 
REMARK       I    between atoms: C_101  and  N_103 
REMARK   41  A    between atoms: N_103  and  CA_104 
REMARK   42  A    between atoms: CA_104  and  C_105 
ROOT
ATOM      1  CA  ARG     6      -4.207 -22.664   1.256  1.00  0.00     0.186 C 
ENDROOT
BRANCH   1   2
ATOM      2  N   ARG     6      -3.924 -24.074   1.614  1.00  0.00    -0.229 NA
ATOM      3  C   TYR     5      -3.017 -24.812   0.960  1.00  0.00     0.275 C 
ATOM      4  O   TYR     5      -2.339 -24.357   0.039  1.00  0.00    -0.268 OA
BRANCH   3   5
ATOM      5  CA  TYR     5      -2.767 -26.237   1.481  1.00  0.00     0.191 C 
BRANCH   5   6
ATOM      6  N   TYR     5      -4.006 -27.046   1.612  1.00  0.00    -0.228 NA
ATOM      7  C   GLU     4      -4.537 -27.389   2.797  1.00  0.00     0.274 C 
ATOM      8  O   GLU     4      -4.122 -26.944   3.860  1.00  0.00    -0.268 OA
BRANCH   7   9
ATOM      9  CA  GLU     4      -5.900 -28.109   2.745  1.00  0.00     0.187 C 
BRANCH   9  10
ATOM     10  CB  GLU     4      -7.037 -27.084   2.888  1.00  0.00     0.045 C 
BRANCH  10  11
ATOM     11  CG  GLU     4      -8.426 -27.530   2.381  1.00  0.00     0.100 C 
BRANCH  11  12
ATOM     12  CD  GLU     4      -9.598 -26.984   3.196  1.00  0.00     0.185 C 
ATOM     13  OE1 GLU     4     -10.370 -26.171   2.623  1.00  0.00    -0.647 OA
ATOM     14  OE2 GLU     4      -9.466 -26.980   4.436  1.00  0.00    -0.647 OA
ENDBRANCH  11  12
ENDBRANCH  10  11
ENDBRANCH   9  10
BRANCH   9  15
ATOM     15  N   GLU     4      -6.056 -29.135   3.794  1.00  0.00    -0.229 NA
ATOM     16  C   PRO     3      -5.353 -30.249   3.963  1.00  0.00     0.272 C 
ATOM     17  O   PRO     3      -4.225 -30.414   3.494  1.00  0.00    -0.269 OA
BRANCH  16  18
ATOM     18  CA  PRO     3      -5.770 -31.110   5.157  1.00  0.00     0.165 C 
ATOM     19  N   PRO     3      -6.070 -30.356   6.392  1.00  0.00    -0.312 N 
ATOM     20  CD  PRO     3      -7.257 -30.945   7.062  1.00  0.00     0.105 C 
ATOM     21  C   ASP     2      -5.278 -29.390   6.894  1.00  0.00     0.257 C 
ATOM     22  CG  PRO     3      -7.532 -32.238   6.277  1.00  0.00     0.027 C 
ATOM     23  CB  PRO     3      -7.031 -31.923   4.871  1.00  0.00     0.034 C 
ATOM     24  O   ASP     2      -4.132 -29.226   6.450  1.00  0.00    -0.270 OA
BRANCH  21  25
ATOM     25  CA  ASP     2      -5.647 -28.727   8.240  1.00  0.00     0.195 C 
BRANCH  25  26
ATOM     26  CB  ASP     2      -6.439 -27.396   8.159  1.00  0.00     0.132 C 
BRANCH  26  27
ATOM     27  CG  ASP     2      -7.906 -27.617   8.569  1.00  0.00     0.188 C 
ATOM     28  OD2 ASP     2      -8.079 -28.235   9.651  1.00  0.00    -0.647 OA
ATOM     29  OD1 ASP     2      -8.743 -27.718   7.638  1.00  0.00    -0.647 OA
ENDBRANCH  26  27
ENDBRANCH  25  26
BRANCH  25  30
ATOM     30  N   ASP     2      -4.454 -28.341   9.013  1.00  0.00    -0.228 NA
ATOM     31  C   TYR     1      -4.342 -28.311  10.320  1.00  0.00     0.289 C 
ATOM     32  O   TYR     1      -5.147 -28.721  11.163  1.00  0.00    -0.268 OA
BRANCH  31  33
ATOM     33  CA  TYR     1      -3.039 -27.656  10.767  1.00  0.00     0.385 C 
ATOM     34  N   TYR     1      -2.563 -28.368  11.964  1.00  0.00     0.626 N 
BRANCH  33  35
ATOM     35  CB  TYR     1      -2.058 -27.753   9.601  1.00  0.00     0.075 C 
BRANCH  35  36
ATOM     36  CG  TYR     1      -1.208 -26.485   9.423  1.00  0.00    -0.019 A 
ATOM     37  CD2 TYR     1      -1.769 -25.293   8.991  1.00  0.00    -0.002 A 
ATOM     38  CE2 TYR     1      -1.011 -24.133   8.969  1.00  0.00     0.027 A 
ATOM     39  CZ  TYR     1       0.321 -24.182   9.379  1.00  0.00     0.131 A 
ATOM     40  CE1 TYR     1       0.886 -25.383   9.770  1.00  0.00     0.027 A 
ATOM     41  OH  TYR     1       1.022 -23.043   9.546  1.00  0.00    -0.190 OA
ATOM     42  CD1 TYR     1       0.128 -26.544   9.792  1.00  0.00    -0.002 A 
ENDBRANCH  35  36
ENDBRANCH  33  35
ENDBRANCH  31  33
ENDBRANCH  25  30
ENDBRANCH  21  25
ENDBRANCH  16  18
ENDBRANCH   9  15
ENDBRANCH   7   9
ENDBRANCH   5   6
BRANCH   5  43
ATOM     43  CB  TYR     5      -1.746 -26.973   0.596  1.00  0.00     0.060 C 
BRANCH  43  44
ATOM     44  CG  TYR     5      -0.546 -27.498   1.403  1.00  0.00    -0.020 A 
ATOM     45  CD2 TYR     5      -0.355 -28.862   1.579  1.00  0.00    -0.002 A 
ATOM     46  CE2 TYR     5       0.738 -29.327   2.303  1.00  0.00     0.027 A 
ATOM     47  CZ  TYR     5       1.639 -28.429   2.852  1.00  0.00     0.131 A 
ATOM     48  CE1 TYR     5       1.465 -27.062   2.666  1.00  0.00     0.027 A 
ATOM     49  OH  TYR     5       2.621 -28.864   3.672  1.00  0.00    -0.190 OA
ATOM     50  CD1 TYR     5       0.363 -26.598   1.946  1.00  0.00    -0.002 A 
ENDBRANCH  43  44
ENDBRANCH   5  43
ENDBRANCH   3   5
ENDBRANCH   1   2
BRANCH   1  51
ATOM     51  CB  ARG     6      -5.458 -22.510   0.396  1.00  0.00     0.036 C 
BRANCH  51  52
ATOM     52  CG  ARG     6      -6.595 -23.456   0.790  1.00  0.00     0.029 C 
BRANCH  52  53
ATOM     53  CD  ARG     6      -7.920 -22.701   0.843  1.00  0.00     0.145 C 
BRANCH  53  54
ATOM     54  NE  ARG     6      -7.902 -21.677   1.901  1.00  0.00    -0.083 NA
ATOM     55  CZ  ARG     6      -8.692 -21.666   2.991  1.00  0.00     0.782 C 
ATOM     56  NH2 ARG     6      -8.651 -20.644   3.848  1.00  0.00     0.063 N 
ATOM     57  NH1 ARG     6      -9.584 -22.632   3.183  1.00  0.00     0.063 N 
ENDBRANCH  53  54
ENDBRANCH  52  53
ENDBRANCH  51  52
ENDBRANCH   1  51
BRANCH   1  58
ATOM     58  C   ARG     6      -4.410 -21.775   2.490  1.00  0.00     0.274 C 
ATOM     59  N   ASN     7      -4.436 -22.408   3.659  1.00  0.00    -0.228 NA
ATOM     60  O   ARG     6      -4.540 -20.560   2.340  1.00  0.00    -0.268 OA
BRANCH  59  61
ATOM     61  CA  ASN     7      -4.523 -21.713   4.960  1.00  0.00     0.196 C 
BRANCH  61  62
ATOM     62  C   ASN     7      -3.292 -22.001   5.841  1.00  0.00     0.275 C 
ATOM     63  N   PHE     8      -2.112 -22.123   5.215  1.00  0.00    -0.228 NA
ATOM     64  O   ASN     7      -3.378 -21.722   7.021  1.00  0.00    -0.268 OA
BRANCH  63  65
ATOM     65  CA  PHE     8      -0.807 -22.314   5.894  1.00  0.00     0.191 C 
BRANCH  65  66
ATOM     66  CB  PHE     8       0.054 -23.244   5.028  1.00  0.00     0.060 C 
BRANCH  66  67
ATOM     67  CG  PHE     8       0.034 -24.720   5.465  1.00  0.00    -0.020 A 
ATOM     68  CD1 PHE     8       1.176 -25.299   6.002  1.00  0.00    -0.004 A 
ATOM     69  CE1 PHE     8       1.188 -26.661   6.303  1.00  0.00    -0.000 A 
ATOM     70  CZ  PHE     8       0.055 -27.425   6.078  1.00  0.00    -0.000 A 
ATOM     71  CE2 PHE     8      -1.095 -26.845   5.553  1.00  0.00    -0.000 A 
ATOM     72  CD2 PHE     8      -1.107 -25.483   5.252  1.00  0.00    -0.004 A 
ENDBRANCH  66  67
ENDBRANCH  65  66
BRANCH  65  73
ATOM     73  C   PHE     8      -0.059 -21.009   6.249  1.00  0.00     0.275 C 
ATOM     74  N   TRP     9      -0.225 -20.548   7.490  1.00  0.00    -0.228 NA
ATOM     75  O   PHE     8       0.448 -20.310   5.368  1.00  0.00    -0.268 OA
BRANCH  74  76
ATOM     76  CA  TRP     9       0.529 -19.378   8.003  1.00  0.00     0.191 C 
BRANCH  76  77
ATOM     77  CB  TRP     9      -0.450 -18.433   8.718  1.00  0.00     0.062 C 
BRANCH  77  78
ATOM     78  CG  TRP     9      -1.084 -17.402   7.784  1.00  0.00     0.001 A 
ATOM     79  CD1 TRP     9      -0.747 -17.187   6.516  1.00  0.00     0.095 A 
ATOM     80  NE1 TRP     9      -1.278 -16.045   6.099  1.00  0.00    -0.244 NA
ATOM     81  CE2 TRP     9      -1.987 -15.503   7.078  1.00  0.00     0.081 A 
ATOM     82  CD2 TRP     9      -1.879 -16.333   8.182  1.00  0.00     0.015 A 
ATOM     83  CZ2 TRP     9      -2.662 -14.288   7.197  1.00  0.00     0.019 A 
ATOM     84  CE3 TRP     9      -2.421 -15.963   9.405  1.00  0.00     0.001 A 
ATOM     85  CZ3 TRP     9      -3.083 -14.746   9.529  1.00  0.00     0.000 A 
ATOM     86  CH2 TRP     9      -3.217 -13.921   8.414  1.00  0.00     0.002 A 
ENDBRANCH  77  78
ENDBRANCH  76  77
BRANCH  76  87
ATOM     87  C   TRP     9       1.735 -19.735   8.901  1.00  0.00     0.275 C 
ATOM     88  O   TRP     9       1.692 -19.554  10.114  1.00  0.00    -0.268 OA
ATOM     89  N   GLY    10       2.761 -20.334   8.297  1.00  0.00    -0.226 NA
BRANCH  89  90
ATOM     90  CA  GLY    10       3.992 -20.793   8.996  1.00  0.00     0.218 C 
BRANCH  90  91
ATOM     91  C   GLY    10       5.279 -20.005   8.699  1.00  0.00     0.277 C 
ATOM     92  N   CYS    11       6.065 -19.793   9.754  1.00  0.00    -0.228 NA
ATOM     93  O   GLY    10       5.449 -19.478   7.606  1.00  0.00    -0.268 OA
BRANCH  92  94
ATOM     94  CA  CYS    11       7.366 -19.088   9.756  1.00  0.00     0.198 C 
BRANCH  94  95
ATOM     95  C   CYS    11       8.268 -19.752  10.815  1.00  0.00     0.275 C 
ATOM     96  O   CYS    11       9.477 -19.550  10.780  1.00  0.00    -0.268 OA
ATOM     97  N   GLY    12       7.690 -20.665  11.582  1.00  0.00    -0.225 NA
BRANCH  97  98
ATOM     98  CA  GLY    12       8.410 -21.404  12.630  1.00  0.00     0.226 C 
BRANCH  98  99
ATOM     99  C   GLY    12       8.144 -22.913  12.420  1.00  0.00     0.211 C 
ATOM    100  O1  GLY    12       7.716 -23.257  11.289  1.00  0.00    -0.646 OA
ATOM    101  O2  GLY    12       8.402 -23.685  13.362  1.00  0.00    -0.646 OA
ENDBRANCH  98  99
ENDBRANCH  97  98
ENDBRANCH  94  95
BRANCH  94 102
ATOM    102  CB  CYS    11       7.182 -17.645  10.219  1.00  0.00     0.103 C 
ATOM    103  SG  CYS    11       8.204 -16.385   9.364  1.00  0.00    -0.080 SA
ENDBRANCH  94 102
ENDBRANCH  92  94
ENDBRANCH  90  91
ENDBRANCH  89  90
ENDBRANCH  76  87
ENDBRANCH  74  76
ENDBRANCH  65  73
ENDBRANCH  63  65
ENDBRANCH  61  62
BRANCH  61 104
ATOM    104  CB  ASN     7      -5.818 -22.074   5.698  1.00  0.00     0.126 C 
BRANCH 104 105
ATOM    105  CG  ASN     7      -5.968 -23.566   6.051  1.00  0.00     0.276 C 
ATOM    106  ND2 ASN     7      -5.959 -23.859   7.331  1.00  0.00    -0.107 N 
ATOM    107  OD1 ASN     7      -5.936 -24.486   5.243  1.00  0.00    -0.269 OA
ENDBRANCH 104 105
ENDBRANCH  61 104
ENDBRANCH  59  61
ENDBRANCH   1  58
TORSDOF 42
ENDMDL
MODEL 8
REMARK VINA RESULT:      -5.9     12.644     16.747
REMARK WARNING: 32 MAX_TORS EXCEEDED!!!
REMARK  42 active torsions:
REMARK  status: ('A' for Active; 'I' for Inactive)
REMARK    1  A    between atoms: CA_2  and  CB_3 
REMARK    2  A    between atoms: CA_2  and  C_11 
REMARK    3  A    between atoms: CB_3  and  CG_4 
REMARK       I    between atoms: C_11  and  N_13 
REMARK    4  A    between atoms: N_13  and  CA_14 
REMARK    5  A    between atoms: CA_14  and  CB_15 
REMARK    6  A    between atoms: CA_14  and  C_19 
REMARK    7  A    between atoms: CB_15  and  CG_16 
REMARK       I    between atoms: C_19  and  N_21 
REMARK    8  A    between atoms: CA_22  and  C_26 
REMARK       I    between atoms: C_26  and  N_28 
REMARK    9  A    between atoms: N_28  and  CA_29 
REMARK   10  A    between atoms: CA_29  and  C_35 
REMARK   11  A    between atoms: CA_29  and  CB_30 
REMARK   12  A    between atoms: CB_30  and  CG_31 
REMARK   13  A    between atoms: CG_31  and  CD_32 
REMARK       I    between atoms: C_35  and  N_37 
REMARK   14  A    between atoms: N_37  and  CA_38 
REMARK   15  A    between atoms: CA_38  and  CB_39 
REMARK   16  A    between atoms: CA_38  and  C_47 
REMARK   17  A    between atoms: CB_39  and  CG_40 
REMARK       I    between atoms: C_47  and  N_49 
REMARK   18  A    between atoms: N_49  and  CA_50 
REMARK   19  A    between atoms: CA_50  and  CB_51 
REMARK   20  A    between atoms: CA_50  and  C_58 
REMARK   21  A    between atoms: CB_51  and  CG_52 
REMARK   22  A    between atoms: CG_52  and  CD_53 
REMARK   23  A    between atoms: CD_53  and  NE_54 
REMARK       I    between atoms: C_58  and  N_60 
REMARK   24  A    between atoms: N_60  and  CA_61 
REMARK   25  A    between atoms: CA_61  and  C_66 
REMARK   26  A    between atoms: CA_61  and  CB_62 
REMARK   27  A    between atoms: CB_62  and  CG_63 
REMARK       I    between atoms: C_66  and  N_68 
REMARK   28  A    between atoms: N_68  and  CA_69 
REMARK   29  A    between atoms: CA_69  and  CB_70 
REMARK   30  A    between atoms: CA_69  and  C_77 
REMARK   31  A    between atoms: CB_70  and  CG_71 
REMARK       I    between atoms: C_77  and  N_79 
REMARK   32  A    between atoms: N_79  and  CA_80 
REMARK   33  A    between atoms: CA_80  and  CB_81 
REMARK   34  A    between atoms: CA_80  and  C_91 
REMARK   35  A    between atoms: CB_81  and  CG_82 
REMARK       I    between atoms: C_91  and  N_93 
REMARK   36  A    between atoms: N_93  and  CA_94 
REMARK   37  A    between atoms: CA_94  and  C_95 
REMARK       I    between atoms: C_95  and  N_97 
REMARK   38  A    between atoms: N_97  and  CA_98 
REMARK   39  A    between atoms: CA_98  and  C_101 
REMARK   40  A    between atoms: CA_98  and  CB_99 
REMARK       I    between atoms: C_101  and  N_103 
REMARK   41  A    between atoms: N_103  and  CA_104 
REMARK   42  A    between atoms: CA_104  and  C_105 
ROOT
ATOM      1  CA  ARG     6       5.332 -20.722   7.819  1.00  0.00     0.186 C 
ENDROOT
BRANCH   1   2
ATOM      2  N   ARG     6       6.144 -19.810   6.979  1.00  0.00    -0.229 NA
ATOM      3  C   TYR     5       7.126 -20.251   6.183  1.00  0.00     0.275 C 
ATOM      4  O   TYR     5       7.400 -21.447   6.074  1.00  0.00    -0.268 OA
BRANCH   3   5
ATOM      5  CA  TYR     5       7.841 -19.208   5.308  1.00  0.00     0.191 C 
BRANCH   5   6
ATOM      6  N   TYR     5       9.093 -18.685   5.913  1.00  0.00    -0.228 NA
ATOM      7  C   GLU     4       9.137 -17.567   6.658  1.00  0.00     0.274 C 
ATOM      8  O   GLU     4       8.129 -16.970   7.013  1.00  0.00    -0.268 OA
BRANCH   7   9
ATOM      9  CA  GLU     4      10.493 -17.250   7.322  1.00  0.00     0.187 C 
BRANCH   9  10
ATOM     10  CB  GLU     4      10.293 -16.223   8.449  1.00  0.00     0.045 C 
BRANCH  10  11
ATOM     11  CG  GLU     4      10.209 -16.790   9.883  1.00  0.00     0.100 C 
BRANCH  11  12
ATOM     12  CD  GLU     4      11.566 -17.068  10.530  1.00  0.00     0.185 C 
ATOM     13  OE1 GLU     4      11.908 -18.273  10.659  1.00  0.00    -0.647 OA
ATOM     14  OE2 GLU     4      12.017 -16.187  11.289  1.00  0.00    -0.647 OA
ENDBRANCH  11  12
ENDBRANCH  10  11
ENDBRANCH   9  10
BRANCH   9  15
ATOM     15  N   GLU     4      11.496 -16.724   6.377  1.00  0.00    -0.229 NA
ATOM     16  C   PRO     3      11.291 -16.009   5.277  1.00  0.00     0.272 C 
ATOM     17  O   PRO     3      10.263 -15.360   5.074  1.00  0.00    -0.269 OA
BRANCH  16  18
ATOM     18  CA  PRO     3      12.554 -15.616   4.508  1.00  0.00     0.165 C 
ATOM     19  N   PRO     3      13.422 -14.638   5.197  1.00  0.00    -0.312 N 
ATOM     20  CD  PRO     3      14.846 -15.011   5.003  1.00  0.00     0.105 C 
ATOM     21  C   ASP     2      12.972 -13.506   5.768  1.00  0.00     0.257 C 
ATOM     22  CG  PRO     3      14.803 -16.149   3.972  1.00  0.00     0.027 C 
ATOM     23  CB  PRO     3      13.454 -16.816   4.224  1.00  0.00     0.034 C 
ATOM     24  O   ASP     2      11.813 -13.116   5.559  1.00  0.00    -0.270 OA
BRANCH  21  25
ATOM     25  CA  ASP     2      13.982 -12.512   6.386  1.00  0.00     0.195 C 
BRANCH  25  26
ATOM     26  CB  ASP     2      13.862 -12.267   7.912  1.00  0.00     0.132 C 
BRANCH  26  27
ATOM     27  CG  ASP     2      15.244 -11.957   8.517  1.00  0.00     0.188 C 
ATOM     28  OD2 ASP     2      15.325 -10.878   9.158  1.00  0.00    -0.647 OA
ATOM     29  OD1 ASP     2      16.243 -12.408   7.903  1.00  0.00    -0.647 OA
ENDBRANCH  26  27
ENDBRANCH  25  26
BRANCH  25  30
ATOM     30  N   ASP     2      13.832 -11.155   5.833  1.00  0.00    -0.228 NA
ATOM     31  C   TYR     1      14.693 -10.517   5.075  1.00  0.00     0.289 C 
ATOM     32  O   TYR     1      15.726 -10.957   4.562  1.00  0.00    -0.268 OA
BRANCH  31  33
ATOM     33  CA  TYR     1      14.303  -9.056   4.873  1.00  0.00     0.385 C 
ATOM     34  N   TYR     1      14.000  -8.483   6.195  1.00  0.00     0.626 N 
BRANCH  33  35
ATOM     35  CB  TYR     1      15.478  -8.361   4.190  1.00  0.00     0.075 C 
BRANCH  35  36
ATOM     36  CG  TYR     1      15.043  -7.415   3.060  1.00  0.00    -0.019 A 
ATOM     37  CD2 TYR     1      15.646  -6.180   2.879  1.00  0.00    -0.002 A 
ATOM     38  CE2 TYR     1      15.330  -5.405   1.774  1.00  0.00     0.027 A 
ATOM     39  CZ  TYR     1      14.397  -5.881   0.854  1.00  0.00     0.131 A 
ATOM     40  CE1 TYR     1      13.769  -7.096   1.062  1.00  0.00     0.027 A 
ATOM     41  OH  TYR     1      14.211  -5.240  -0.318  1.00  0.00    -0.190 OA
ATOM     42  CD1 TYR     1      14.085  -7.871   2.168  1.00  0.00    -0.002 A 
ENDBRANCH  35  36
ENDBRANCH  33  35
ENDBRANCH  31  33
ENDBRANCH  25  30
ENDBRANCH  21  25
ENDBRANCH  16  18
ENDBRANCH   9  15
ENDBRANCH   7   9
ENDBRANCH   5   6
BRANCH   5  43
ATOM     43  CB  TYR     5       8.128 -19.771   3.906  1.00  0.00     0.060 C 
BRANCH  43  44
ATOM     44  CG  TYR     5       7.926 -18.719   2.802  1.00  0.00    -0.020 A 
ATOM     45  CD2 TYR     5       8.774 -17.624   2.705  1.00  0.00    -0.002 A 
ATOM     46  CE2 TYR     5       8.588 -16.681   1.699  1.00  0.00     0.027 A 
ATOM     47  CZ  TYR     5       7.552 -16.833   0.789  1.00  0.00     0.131 A 
ATOM     48  CE1 TYR     5       6.709 -17.936   0.869  1.00  0.00     0.027 A 
ATOM     49  OH  TYR     5       7.279 -15.855  -0.101  1.00  0.00    -0.190 OA
ATOM     50  CD1 TYR     5       6.893 -18.875   1.884  1.00  0.00    -0.002 A 
ENDBRANCH  43  44
ENDBRANCH   5  43
ENDBRANCH   3   5
ENDBRANCH   1   2
BRANCH   1  51
ATOM     51  CB  ARG     6       5.106 -20.186   9.229  1.00  0.00     0.036 C 
BRANCH  51  52
ATOM     52  CG  ARG     6       6.169 -19.183   9.684  1.00  0.00     0.029 C 
BRANCH  52  53
ATOM     53  CD  ARG     6       7.311 -19.905  10.393  1.00  0.00     0.145 C 
BRANCH  53  54
ATOM     54  NE  ARG     6       8.547 -19.850   9.594  1.00  0.00    -0.083 NA
ATOM     55  CZ  ARG     6       9.185 -20.913   9.068  1.00  0.00     0.782 C 
ATOM     56  NH2 ARG     6      10.346 -20.759   8.429  1.00  0.00     0.063 N 
ATOM     57  NH1 ARG     6       8.710 -22.140   9.254  1.00  0.00     0.063 N 
ENDBRANCH  53  54
ENDBRANCH  52  53
ENDBRANCH  51  52
ENDBRANCH   1  51
BRANCH   1  58
ATOM     58  C   ARG     6       3.945 -20.989   7.222  1.00  0.00     0.274 C 
ATOM     59  N   ASN     7       2.916 -20.776   8.038  1.00  0.00    -0.228 NA
ATOM     60  O   ARG     6       3.856 -21.378   6.057  1.00  0.00    -0.268 OA
BRANCH  59  61
ATOM     61  CA  ASN     7       1.504 -20.885   7.614  1.00  0.00     0.196 C 
BRANCH  61  62
ATOM     62  C   ASN     7       0.696 -19.634   8.009  1.00  0.00     0.275 C 
ATOM     63  N   PHE     8      -0.509 -19.484   7.438  1.00  0.00    -0.228 NA
ATOM     64  O   ASN     7       0.993 -19.089   9.055  1.00  0.00    -0.268 OA
BRANCH  63  65
ATOM     65  CA  PHE     8      -1.467 -18.396   7.752  1.00  0.00     0.191 C 
BRANCH  65  66
ATOM     66  CB  PHE     8      -0.724 -17.057   7.655  1.00  0.00     0.060 C 
BRANCH  66  67
ATOM     67  CG  PHE     8      -1.548 -15.837   8.108  1.00  0.00    -0.020 A 
ATOM     68  CD1 PHE     8      -2.303 -15.129   7.182  1.00  0.00    -0.004 A 
ATOM     69  CE1 PHE     8      -2.967 -13.966   7.572  1.00  0.00    -0.000 A 
ATOM     70  CZ  PHE     8      -2.881 -13.533   8.885  1.00  0.00    -0.000 A 
ATOM     71  CE2 PHE     8      -2.136 -14.248   9.817  1.00  0.00    -0.000 A 
ATOM     72  CD2 PHE     8      -1.472 -15.411   9.428  1.00  0.00    -0.004 A 
ENDBRANCH  66  67
ENDBRANCH  65  66
BRANCH  65  73
ATOM     73  C   PHE     8      -2.757 -18.397   6.901  1.00  0.00     0.275 C 
ATOM     74  N   TRP     9      -3.910 -18.441   7.571  1.00  0.00    -0.228 NA
ATOM     75  O   PHE     8      -2.714 -18.602   5.686  1.00  0.00    -0.268 OA
BRANCH  74  76
ATOM     76  CA  TRP     9      -5.222 -18.322   6.888  1.00  0.00     0.191 C 
BRANCH  76  77
ATOM     77  CB  TRP     9      -5.413 -16.867   6.430  1.00  0.00     0.062 C 
BRANCH  77  78
ATOM     78  CG  TRP     9      -6.866 -16.398   6.506  1.00  0.00     0.001 A 
ATOM     79  CD1 TRP     9      -7.875 -17.069   7.052  1.00  0.00     0.095 A 
ATOM     80  NE1 TRP     9      -9.027 -16.520   6.688  1.00  0.00    -0.244 NA
ATOM     81  CE2 TRP     9      -8.793 -15.470   5.916  1.00  0.00     0.081 A 
ATOM     82  CD2 TRP     9      -7.420 -15.362   5.761  1.00  0.00     0.015 A 
ATOM     83  CZ2 TRP     9      -9.632 -14.610   5.208  1.00  0.00     0.019 A 
ATOM     84  CE3 TRP     9      -6.873 -14.422   4.901  1.00  0.00     0.001 A 
ATOM     85  CZ3 TRP     9      -7.708 -13.572   4.183  1.00  0.00     0.000 A 
ATOM     86  CH2 TRP     9      -9.088 -13.659   4.356  1.00  0.00     0.002 A 
ENDBRANCH  77  78
ENDBRANCH  76  77
BRANCH  76  87
ATOM     87  C   TRP     9      -5.432 -19.318   5.725  1.00  0.00     0.275 C 
ATOM     88  O   TRP     9      -5.628 -18.919   4.581  1.00  0.00    -0.268 OA
ATOM     89  N   GLY    10      -5.288 -20.609   6.023  1.00  0.00    -0.226 NA
BRANCH  89  90
ATOM     90  CA  GLY    10      -5.408 -21.716   5.035  1.00  0.00     0.218 C 
BRANCH  90  91
ATOM     91  C   GLY    10      -4.264 -21.847   4.016  1.00  0.00     0.277 C 
ATOM     92  N   CYS    11      -3.256 -22.629   4.399  1.00  0.00    -0.228 NA
ATOM     93  O   GLY    10      -4.234 -21.137   3.017  1.00  0.00    -0.268 OA
BRANCH  92  94
ATOM     94  CA  CYS    11      -2.043 -22.952   3.614  1.00  0.00     0.198 C 
BRANCH  94  95
ATOM     95  C   CYS    11      -2.429 -23.988   2.540  1.00  0.00     0.275 C 
ATOM     96  O   CYS    11      -3.018 -25.008   2.881  1.00  0.00    -0.268 OA
ATOM     97  N   GLY    12      -1.917 -23.794   1.334  1.00  0.00    -0.225 NA
BRANCH  97  98
ATOM     98  CA  GLY    12      -2.172 -24.697   0.200  1.00  0.00     0.226 C 
BRANCH  98  99
ATOM     99  C   GLY    12      -3.602 -24.420  -0.318  1.00  0.00     0.211 C 
ATOM    100  O1  GLY    12      -3.863 -23.236  -0.648  1.00  0.00    -0.646 OA
ATOM    101  O2  GLY    12      -4.384 -25.385  -0.408  1.00  0.00    -0.646 OA
ENDBRANCH  98  99
ENDBRANCH  97  98
ENDBRANCH  94  95
BRANCH  94 102
ATOM    102  CB  CYS    11      -1.011 -23.643   4.502  1.00  0.00     0.103 C 
ATOM    103  SG  CYS    11       0.739 -23.169   4.227  1.00  0.00    -0.080 SA
ENDBRANCH  94 102
ENDBRANCH  92  94
ENDBRANCH  90  91
ENDBRANCH  89  90
ENDBRANCH  76  87
ENDBRANCH  74  76
ENDBRANCH  65  73
ENDBRANCH  63  65
ENDBRANCH  61  62
BRANCH  61 104
ATOM    104  CB  ASN     7       0.852 -22.156   8.174  1.00  0.00     0.126 C 
BRANCH 104 105
ATOM    105  CG  ASN     7       1.008 -22.348   9.693  1.00  0.00     0.276 C 
ATOM    106  ND2 ASN     7      -0.060 -22.768  10.334  1.00  0.00    -0.107 N 
ATOM    107  OD1 ASN     7       1.980 -21.998  10.350  1.00  0.00    -0.269 OA
ENDBRANCH 104 105
ENDBRANCH  61 104
ENDBRANCH  59  61
ENDBRANCH   1  58
TORSDOF 42
ENDMDL
MODEL 9
REMARK VINA RESULT:      -5.9      2.398      3.988
REMARK WARNING: 32 MAX_TORS EXCEEDED!!!
REMARK  42 active torsions:
REMARK  status: ('A' for Active; 'I' for Inactive)
REMARK    1  A    between atoms: CA_2  and  CB_3 
REMARK    2  A    between atoms: CA_2  and  C_11 
REMARK    3  A    between atoms: CB_3  and  CG_4 
REMARK       I    between atoms: C_11  and  N_13 
REMARK    4  A    between atoms: N_13  and  CA_14 
REMARK    5  A    between atoms: CA_14  and  CB_15 
REMARK    6  A    between atoms: CA_14  and  C_19 
REMARK    7  A    between atoms: CB_15  and  CG_16 
REMARK       I    between atoms: C_19  and  N_21 
REMARK    8  A    between atoms: CA_22  and  C_26 
REMARK       I    between atoms: C_26  and  N_28 
REMARK    9  A    between atoms: N_28  and  CA_29 
REMARK   10  A    between atoms: CA_29  and  C_35 
REMARK   11  A    between atoms: CA_29  and  CB_30 
REMARK   12  A    between atoms: CB_30  and  CG_31 
REMARK   13  A    between atoms: CG_31  and  CD_32 
REMARK       I    between atoms: C_35  and  N_37 
REMARK   14  A    between atoms: N_37  and  CA_38 
REMARK   15  A    between atoms: CA_38  and  CB_39 
REMARK   16  A    between atoms: CA_38  and  C_47 
REMARK   17  A    between atoms: CB_39  and  CG_40 
REMARK       I    between atoms: C_47  and  N_49 
REMARK   18  A    between atoms: N_49  and  CA_50 
REMARK   19  A    between atoms: CA_50  and  CB_51 
REMARK   20  A    between atoms: CA_50  and  C_58 
REMARK   21  A    between atoms: CB_51  and  CG_52 
REMARK   22  A    between atoms: CG_52  and  CD_53 
REMARK   23  A    between atoms: CD_53  and  NE_54 
REMARK       I    between atoms: C_58  and  N_60 
REMARK   24  A    between atoms: N_60  and  CA_61 
REMARK   25  A    between atoms: CA_61  and  C_66 
REMARK   26  A    between atoms: CA_61  and  CB_62 
REMARK   27  A    between atoms: CB_62  and  CG_63 
REMARK       I    between atoms: C_66  and  N_68 
REMARK   28  A    between atoms: N_68  and  CA_69 
REMARK   29  A    between atoms: CA_69  and  CB_70 
REMARK   30  A    between atoms: CA_69  and  C_77 
REMARK   31  A    between atoms: CB_70  and  CG_71 
REMARK       I    between atoms: C_77  and  N_79 
REMARK   32  A    between atoms: N_79  and  CA_80 
REMARK   33  A    between atoms: CA_80  and  CB_81 
REMARK   34  A    between atoms: CA_80  and  C_91 
REMARK   35  A    between atoms: CB_81  and  CG_82 
REMARK       I    between atoms: C_91  and  N_93 
REMARK   36  A    between atoms: N_93  and  CA_94 
REMARK   37  A    between atoms: CA_94  and  C_95 
REMARK       I    between atoms: C_95  and  N_97 
REMARK   38  A    between atoms: N_97  and  CA_98 
REMARK   39  A    between atoms: CA_98  and  C_101 
REMARK   40  A    between atoms: CA_98  and  CB_99 
REMARK       I    between atoms: C_101  and  N_103 
REMARK   41  A    between atoms: N_103  and  CA_104 
REMARK   42  A    between atoms: CA_104  and  C_105 
ROOT
ATOM      1  CA  ARG     6       5.821   1.388  10.855  1.00  0.00     0.186 C 
ENDROOT
BRANCH   1   2
ATOM      2  N   ARG     6       5.980   0.084  10.170  1.00  0.00    -0.229 NA
ATOM      3  C   TYR     5       6.150  -1.064  10.840  1.00  0.00     0.275 C 
ATOM      4  O   TYR     5       6.155  -1.113  12.070  1.00  0.00    -0.268 OA
BRANCH   3   5
ATOM      5  CA  TYR     5       6.227  -2.355  10.009  1.00  0.00     0.191 C 
BRANCH   5   6
ATOM      6  N   TYR     5       7.617  -2.768   9.684  1.00  0.00    -0.228 NA
ATOM      7  C   GLU     4       8.288  -2.308   8.615  1.00  0.00     0.274 C 
ATOM      8  O   GLU     4       7.861  -1.408   7.905  1.00  0.00    -0.268 OA
BRANCH   7   9
ATOM      9  CA  GLU     4       9.767  -2.734   8.510  1.00  0.00     0.187 C 
BRANCH   9  10
ATOM     10  CB  GLU     4      10.368  -2.211   7.196  1.00  0.00     0.045 C 
BRANCH  10  11
ATOM     11  CG  GLU     4       9.782  -2.801   5.894  1.00  0.00     0.100 C 
BRANCH  11  12
ATOM     12  CD  GLU     4       9.820  -1.849   4.699  1.00  0.00     0.185 C 
ATOM     13  OE1 GLU     4      10.948  -1.578   4.211  1.00  0.00    -0.647 OA
ATOM     14  OE2 GLU     4       8.862  -1.058   4.582  1.00  0.00    -0.647 OA
ENDBRANCH  11  12
ENDBRANCH  10  11
ENDBRANCH   9  10
BRANCH   9  15
ATOM     15  N   GLU     4       9.957  -4.196   8.566  1.00  0.00    -0.229 NA
ATOM     16  C   PRO     3      10.751  -4.889   9.374  1.00  0.00     0.272 C 
ATOM     17  O   PRO     3      11.171  -4.453  10.447  1.00  0.00    -0.269 OA
BRANCH  16  18
ATOM     18  CA  PRO     3      10.721  -6.406   9.176  1.00  0.00     0.165 C 
ATOM     19  N   PRO     3      12.049  -7.053   9.122  1.00  0.00    -0.312 N 
ATOM     20  CD  PRO     3      12.010  -8.337   9.867  1.00  0.00     0.105 C 
ATOM     21  C   ASP     2      13.073  -6.604   8.373  1.00  0.00     0.257 C 
ATOM     22  CG  PRO     3      10.522  -8.542  10.192  1.00  0.00     0.027 C 
ATOM     23  CB  PRO     3       9.975  -7.122  10.301  1.00  0.00     0.034 C 
ATOM     24  O   ASP     2      12.885  -5.730   7.514  1.00  0.00    -0.270 OA
BRANCH  21  25
ATOM     25  CA  ASP     2      14.391  -7.409   8.327  1.00  0.00     0.195 C 
BRANCH  25  26
ATOM     26  CB  ASP     2      15.608  -6.783   9.056  1.00  0.00     0.132 C 
BRANCH  26  27
ATOM     27  CG  ASP     2      15.209  -5.453   9.723  1.00  0.00     0.188 C 
ATOM     28  OD2 ASP     2      15.791  -4.430   9.282  1.00  0.00    -0.647 OA
ATOM     29  OD1 ASP     2      14.847  -5.512  10.925  1.00  0.00    -0.647 OA
ENDBRANCH  26  27
ENDBRANCH  25  26
BRANCH  25  30
ATOM     30  N   ASP     2      14.893  -7.571   6.952  1.00  0.00    -0.228 NA
ATOM     31  C   TYR     1      14.531  -8.489   6.087  1.00  0.00     0.289 C 
ATOM     32  O   TYR     1      13.614  -9.311   6.189  1.00  0.00    -0.268 OA
BRANCH  31  33
ATOM     33  CA  TYR     1      15.415  -8.484   4.843  1.00  0.00     0.385 C 
ATOM     34  N   TYR     1      16.345  -9.621   4.946  1.00  0.00     0.626 N 
BRANCH  33  35
ATOM     35  CB  TYR     1      14.495  -8.589   3.630  1.00  0.00     0.075 C 
BRANCH  35  36
ATOM     36  CG  TYR     1      14.674  -7.430   2.637  1.00  0.00    -0.019 A 
ATOM     37  CD2 TYR     1      13.937  -7.362   1.465  1.00  0.00    -0.002 A 
ATOM     38  CE2 TYR     1      14.018  -6.240   0.654  1.00  0.00     0.027 A 
ATOM     39  CZ  TYR     1      14.853  -5.188   1.030  1.00  0.00     0.131 A 
ATOM     40  CE1 TYR     1      15.616  -5.280   2.180  1.00  0.00     0.027 A 
ATOM     41  OH  TYR     1      14.809  -4.017   0.364  1.00  0.00    -0.190 OA
ATOM     42  CD1 TYR     1      15.535  -6.402   2.991  1.00  0.00    -0.002 A 
ENDBRANCH  35  36
ENDBRANCH  33  35
ENDBRANCH  31  33
ENDBRANCH  25  30
ENDBRANCH  21  25
ENDBRANCH  16  18
ENDBRANCH   9  15
ENDBRANCH   7   9
ENDBRANCH   5   6
BRANCH   5  43
ATOM     43  CB  TYR     5       5.485  -3.505  10.711  1.00  0.00     0.060 C 
BRANCH  43  44
ATOM     44  CG  TYR     5       4.367  -4.097   9.838  1.00  0.00    -0.020 A 
ATOM     45  CD2 TYR     5       3.485  -3.267   9.159  1.00  0.00    -0.002 A 
ATOM     46  CE2 TYR     5       2.481  -3.812   8.365  1.00  0.00     0.027 A 
ATOM     47  CZ  TYR     5       2.358  -5.188   8.250  1.00  0.00     0.131 A 
ATOM     48  CE1 TYR     5       3.248  -6.026   8.912  1.00  0.00     0.027 A 
ATOM     49  OH  TYR     5       1.305  -5.725   7.596  1.00  0.00    -0.190 OA
ATOM     50  CD1 TYR     5       4.248  -5.477   9.715  1.00  0.00    -0.002 A 
ENDBRANCH  43  44
ENDBRANCH   5  43
ENDBRANCH   3   5
ENDBRANCH   1   2
BRANCH   1  51
ATOM     51  CB  ARG     6       6.536   2.527  10.136  1.00  0.00     0.036 C 
BRANCH  51  52
ATOM     52  CG  ARG     6       7.943   2.806  10.670  1.00  0.00     0.029 C 
BRANCH  52  53
ATOM     53  CD  ARG     6       8.993   2.355   9.659  1.00  0.00     0.145 C 
BRANCH  53  54
ATOM     54  NE  ARG     6       9.194   3.374   8.616  1.00  0.00    -0.083 NA
ATOM     55  CZ  ARG     6      10.379   3.716   8.076  1.00  0.00     0.782 C 
ATOM     56  NH2 ARG     6      10.459   4.715   7.194  1.00  0.00     0.063 N 
ATOM     57  NH1 ARG     6      11.497   3.121   8.478  1.00  0.00     0.063 N 
ENDBRANCH  53  54
ENDBRANCH  52  53
ENDBRANCH  51  52
ENDBRANCH   1  51
BRANCH   1  58
ATOM     58  C   ARG     6       4.352   1.806  10.989  1.00  0.00     0.274 C 
ATOM     59  N   ASN     7       3.760   2.199   9.864  1.00  0.00    -0.228 NA
ATOM     60  O   ARG     6       3.812   1.761  12.095  1.00  0.00    -0.268 OA
BRANCH  59  61
ATOM     61  CA  ASN     7       2.325   2.544   9.777  1.00  0.00     0.196 C 
BRANCH  61  62
ATOM     62  C   ASN     7       1.457   1.298   9.516  1.00  0.00     0.275 C 
ATOM     63  N   PHE     8       0.129   1.481   9.475  1.00  0.00    -0.228 NA
ATOM     64  O   ASN     7       2.000   0.343   8.995  1.00  0.00    -0.268 OA
BRANCH  63  65
ATOM     65  CA  PHE     8      -0.863   0.426   9.153  1.00  0.00     0.191 C 
BRANCH  65  66
ATOM     66  CB  PHE     8      -1.555   0.003  10.457  1.00  0.00     0.060 C 
BRANCH  66  67
ATOM     67  CG  PHE     8      -0.702  -0.900  11.367  1.00  0.00    -0.020 A 
ATOM     68  CD1 PHE     8      -0.576  -0.602  12.716  1.00  0.00    -0.004 A 
ATOM     69  CE1 PHE     8       0.277  -1.360  13.518  1.00  0.00    -0.000 A 
ATOM     70  CZ  PHE     8       0.983  -2.417  12.965  1.00  0.00    -0.000 A 
ATOM     71  CE2 PHE     8       0.847  -2.725  11.615  1.00  0.00    -0.000 A 
ATOM     72  CD2 PHE     8      -0.006  -1.967  10.814  1.00  0.00    -0.004 A 
ENDBRANCH  66  67
ENDBRANCH  65  66
BRANCH  65  73
ATOM     73  C   PHE     8      -1.887   0.804   8.059  1.00  0.00     0.275 C 
ATOM     74  N   TRP     9      -3.106   0.276   8.180  1.00  0.00    -0.228 NA
ATOM     75  O   PHE     8      -1.525   1.348   7.013  1.00  0.00    -0.268 OA
BRANCH  74  76
ATOM     76  CA  TRP     9      -4.219   0.650   7.273  1.00  0.00     0.191 C 
BRANCH  76  77
ATOM     77  CB  TRP     9      -4.516  -0.533   6.337  1.00  0.00     0.062 C 
BRANCH  77  78
ATOM     78  CG  TRP     9      -5.599  -0.226   5.304  1.00  0.00     0.001 A 
ATOM     79  CD1 TRP     9      -5.662   0.859   4.538  1.00  0.00     0.095 A 
ATOM     80  NE1 TRP     9      -6.864   0.945   3.981  1.00  0.00    -0.244 NA
ATOM     81  CE2 TRP     9      -7.601  -0.090   4.355  1.00  0.00     0.081 A 
ATOM     82  CD2 TRP     9      -6.834  -0.861   5.215  1.00  0.00     0.015 A 
ATOM     83  CZ2 TRP     9      -8.935  -0.431   4.135  1.00  0.00     0.019 A 
ATOM     84  CE3 TRP     9      -7.382  -1.955   5.869  1.00  0.00     0.001 A 
ATOM     85  CZ3 TRP     9      -8.716  -2.288   5.661  1.00  0.00     0.000 A 
ATOM     86  CH2 TRP     9      -9.483  -1.532   4.776  1.00  0.00     0.002 A 
ENDBRANCH  77  78
ENDBRANCH  76  77
BRANCH  76  87
ATOM     87  C   TRP     9      -5.496   1.142   7.993  1.00  0.00     0.275 C 
ATOM     88  O   TRP     9      -5.879   2.302   7.874  1.00  0.00    -0.268 OA
ATOM     89  N   GLY    10      -6.192   0.217   8.653  1.00  0.00    -0.226 NA
BRANCH  89  90
ATOM     90  CA  GLY    10      -7.468   0.483   9.372  1.00  0.00     0.218 C 
BRANCH  90  91
ATOM     91  C   GLY    10      -8.759   0.315   8.555  1.00  0.00     0.277 C 
ATOM     92  N   CYS    11      -9.221   1.432   7.995  1.00  0.00    -0.228 NA
ATOM     93  O   GLY    10      -9.382  -0.740   8.584  1.00  0.00    -0.268 OA
BRANCH  92  94
ATOM     94  CA  CYS    11     -10.424   1.559   7.142  1.00  0.00     0.198 C 
BRANCH  94  95
ATOM     95  C   CYS    11     -10.059   2.437   5.929  1.00  0.00     0.275 C 
ATOM     96  O   CYS    11      -8.980   3.019   5.917  1.00  0.00    -0.268 OA
ATOM     97  N   GLY    12     -11.034   2.663   5.060  1.00  0.00    -0.225 NA
BRANCH  97  98
ATOM     98  CA  GLY    12     -10.859   3.492   3.857  1.00  0.00     0.226 C 
BRANCH  98  99
ATOM     99  C   GLY    12     -10.495   2.557   2.681  1.00  0.00     0.211 C 
ATOM    100  O1  GLY    12      -9.405   2.783   2.097  1.00  0.00    -0.646 OA
ATOM    101  O2  GLY    12     -11.280   1.627   2.415  1.00  0.00    -0.646 OA
ENDBRANCH  98  99
ENDBRANCH  97  98
ENDBRANCH  94  95
BRANCH  94 102
ATOM    102  CB  CYS    11     -11.519   2.319   7.886  1.00  0.00     0.103 C 
ATOM    103  SG  CYS    11     -12.120   1.553   9.441  1.00  0.00    -0.080 SA
ENDBRANCH  94 102
ENDBRANCH  92  94
ENDBRANCH  90  91
ENDBRANCH  89  90
ENDBRANCH  76  87
ENDBRANCH  74  76
ENDBRANCH  65  73
ENDBRANCH  63  65
ENDBRANCH  61  62
BRANCH  61 104
ATOM    104  CB  ASN     7       2.075   3.616   8.708  1.00  0.00     0.126 C 
BRANCH 104 105
ATOM    105  CG  ASN     7       2.768   4.966   8.970  1.00  0.00     0.276 C 
ATOM    106  ND2 ASN     7       2.178   5.757   9.837  1.00  0.00    -0.107 N 
ATOM    107  OD1 ASN     7       3.715   5.406   8.331  1.00  0.00    -0.269 OA
ENDBRANCH 104 105
ENDBRANCH  61 104
ENDBRANCH  59  61
ENDBRANCH   1  58
TORSDOF 42
ENDMDL
