MODEL 1
REMARK VINA RESULT:      -4.9      0.000      0.000
REMARK WARNING: 32 MAX_TORS EXCEEDED!!!
REMARK  33 active torsions:
REMARK  status: ('A' for Active; 'I' for Inactive)
REMARK    1  A    between atoms: CA_2  and  C_8 
REMARK    2  A    between atoms: CA_2  and  CB_3 
REMARK    3  A    between atoms: CB_3  and  CG_4 
REMARK    4  A    between atoms: CG_4  and  CD_5 
REMARK       I    between atoms: C_8  and  N_10 
REMARK    5  A    between atoms: N_10  and  CA_11 
REMARK    6  A    between atoms: CA_11  and  C_12 
REMARK       I    between atoms: C_12  and  N_14 
REMARK    7  A    between atoms: N_14  and  CA_15 
REMARK    8  A    between atoms: CA_15  and  C_20 
REMARK    9  A    between atoms: CA_15  and  CB_16 
REMARK   10  A    between atoms: CB_16  and  CG_17 
REMARK       I    between atoms: C_20  and  N_22 
REMARK   11  A    between atoms: N_22  and  CA_23 
REMARK   12  A    between atoms: CA_23  and  CB_24 
REMARK   13  A    between atoms: CA_23  and  C_28 
REMARK   14  A    between atoms: CB_24  and  CG_25 
REMARK       I    between atoms: C_28  and  N_30 
REMARK   15  A    between atoms: N_30  and  CA_31 
REMARK   16  A    between atoms: CA_31  and  CB_32 
REMARK   17  A    between atoms: CA_31  and  C_39 
REMARK   18  A    between atoms: CB_32  and  CG_33 
REMARK   19  A    between atoms: CG_33  and  CD_34 
REMARK   20  A    between atoms: CD_34  and  NE_35 
REMARK       I    between atoms: C_39  and  N_41 
REMARK   21  A    between atoms: CA_42  and  C_46 
REMARK       I    between atoms: C_46  and  N_48 
REMARK   22  A    between atoms: N_48  and  CA_49 
REMARK   23  A    between atoms: CA_49  and  C_52 
REMARK   24  A    between atoms: CA_49  and  CB_50 
REMARK       I    between atoms: C_52  and  N_54 
REMARK   25  A    between atoms: N_54  and  CA_55 
REMARK   26  A    between atoms: CA_55  and  C_56 
REMARK       I    between atoms: C_56  and  N_58 
REMARK   27  A    between atoms: N_58  and  CA_59 
REMARK   28  A    between atoms: CA_59  and  C_60 
REMARK       I    between atoms: C_60  and  N_62 
REMARK   29  A    between atoms: N_62  and  CA_63 
REMARK   30  A    between atoms: CA_63  and  CB_64 
REMARK   31  A    between atoms: CA_63  and  C_66 
REMARK       I    between atoms: C_66  and  N_68 
REMARK   32  A    between atoms: N_68  and  CA_69 
REMARK   33  A    between atoms: CA_69  and  C_70 
ROOT
ATOM      1  CA  ARG     5      -8.795 -21.846   4.601  1.00  0.00     0.185 C 
ENDROOT
BRANCH   1   2
ATOM      2  N   ARG     5      -7.465 -21.525   5.151  1.00  0.00    -0.229 NA
ATOM      3  C   ASN     4      -6.400 -21.182   4.442  1.00  0.00     0.275 C 
ATOM      4  O   ASN     4      -6.303 -21.328   3.228  1.00  0.00    -0.268 OA
BRANCH   3   5
ATOM      5  CA  ASN     4      -5.166 -20.897   5.323  1.00  0.00     0.196 C 
BRANCH   5   6
ATOM      6  N   ASN     4      -5.524 -20.014   6.454  1.00  0.00    -0.228 NA
ATOM      7  C   LEU     3      -4.830 -18.926   6.776  1.00  0.00     0.274 C 
ATOM      8  O   LEU     3      -3.828 -18.523   6.179  1.00  0.00    -0.268 OA
BRANCH   7   9
ATOM      9  CA  LEU     3      -5.399 -18.122   7.945  1.00  0.00     0.186 C 
BRANCH   9  10
ATOM     10  N   LEU     3      -4.348 -17.238   8.497  1.00  0.00    -0.229 NA
ATOM     11  C   GLY     2      -3.644 -17.543   9.590  1.00  0.00     0.277 C 
ATOM     12  O   GLY     2      -3.695 -18.635  10.136  1.00  0.00    -0.268 OA
BRANCH  11  13
ATOM     13  CA  GLY     2      -2.614 -16.489  10.048  1.00  0.00     0.218 C 
BRANCH  13  14
ATOM     14  N   GLY     2      -1.181 -16.869  10.053  1.00  0.00    -0.226 NA
ATOM     15  C   GLU     1      -0.305 -16.348   9.185  1.00  0.00     0.289 C 
ATOM     16  O   GLU     1      -0.614 -15.414   8.463  1.00  0.00    -0.268 OA
BRANCH  15  17
ATOM     17  CA  GLU     1       1.147 -16.893   9.172  1.00  0.00     0.381 C 
ATOM     18  N   GLU     1       1.290 -18.180   8.468  1.00  0.00     0.626 N 
BRANCH  17  19
ATOM     19  CB  GLU     1       2.071 -15.817   8.565  1.00  0.00     0.060 C 
BRANCH  19  20
ATOM     20  CG  GLU     1       3.549 -16.148   8.312  1.00  0.00     0.100 C 
BRANCH  20  21
ATOM     21  CD  GLU     1       4.296 -15.020   7.584  1.00  0.00     0.185 C 
ATOM     22  OE1 GLU     1       5.540 -15.039   7.583  1.00  0.00    -0.647 OA
ATOM     23  OE2 GLU     1       3.629 -14.116   7.052  1.00  0.00    -0.647 OA
ENDBRANCH  20  21
ENDBRANCH  19  20
ENDBRANCH  17  19
ENDBRANCH  15  17
ENDBRANCH  13  14
ENDBRANCH  11  13
ENDBRANCH   9  10
BRANCH   9  24
ATOM     24  CB  LEU     3      -6.588 -17.294   7.441  1.00  0.00     0.034 C 
BRANCH  24  25
ATOM     25  CG  LEU     3      -6.771 -15.956   8.180  1.00  0.00     0.002 C 
ATOM     26  CD1 LEU     3      -7.015 -14.843   7.163  1.00  0.00     0.000 C 
ATOM     27  CD2 LEU     3      -7.937 -16.025   9.172  1.00  0.00     0.000 C 
ENDBRANCH  24  25
ENDBRANCH   9  24
ENDBRANCH   7   9
ENDBRANCH   5   6
BRANCH   5  28
ATOM     28  CB  ASN     4      -4.534 -22.199   5.845  1.00  0.00     0.126 C 
BRANCH  28  29
ATOM     29  CG  ASN     4      -3.021 -22.306   5.570  1.00  0.00     0.276 C 
ATOM     30  ND2 ASN     4      -2.238 -21.618   6.359  1.00  0.00    -0.107 N 
ATOM     31  OD1 ASN     4      -2.535 -23.029   4.722  1.00  0.00    -0.269 OA
ENDBRANCH  28  29
ENDBRANCH   5  28
ENDBRANCH   3   5
ENDBRANCH   1   2
BRANCH   1  32
ATOM     32  CB  ARG     5      -9.460 -22.958   5.419  1.00  0.00     0.036 C 
BRANCH  32  33
ATOM     33  CG  ARG     5      -9.830 -24.194   4.597  1.00  0.00     0.029 C 
BRANCH  33  34
ATOM     34  CD  ARG     5      -8.759 -24.438   3.539  1.00  0.00     0.145 C 
BRANCH  34  35
ATOM     35  NE  ARG     5      -7.548 -25.074   4.112  1.00  0.00    -0.083 NA
ATOM     36  CZ  ARG     5      -6.327 -25.032   3.559  1.00  0.00     0.782 C 
ATOM     37  NH2 ARG     5      -5.239 -25.414   4.248  1.00  0.00     0.063 N 
ATOM     38  NH1 ARG     5      -6.129 -24.497   2.363  1.00  0.00     0.063 N 
ENDBRANCH  34  35
ENDBRANCH  33  34
ENDBRANCH  32  33
ENDBRANCH   1  32
BRANCH   1  39
ATOM     39  C   ARG     5      -9.681 -20.586   4.628  1.00  0.00     0.256 C 
ATOM     40  O   ARG     5      -9.508 -19.733   5.504  1.00  0.00    -0.270 OA
ATOM     41  N   PRO     6     -10.546 -20.426   3.622  1.00  0.00    -0.312 N 
ATOM     42  CA  PRO     6     -11.493 -19.293   3.512  1.00  0.00     0.165 C 
ATOM     43  CD  PRO     6     -10.592 -21.246   2.392  1.00  0.00     0.105 C 
ATOM     44  CB  PRO     6     -12.328 -19.600   2.267  1.00  0.00     0.034 C 
ATOM     45  CG  PRO     6     -11.359 -20.380   1.390  1.00  0.00     0.027 C 
BRANCH  42  46
ATOM     46  C   PRO     6     -12.386 -19.186   4.759  1.00  0.00     0.272 C 
ATOM     47  N   SER     7     -12.697 -17.988   5.235  1.00  0.00    -0.226 NA
ATOM     48  O   PRO     6     -12.720 -20.205   5.370  1.00  0.00    -0.269 OA
BRANCH  47  49
ATOM     49  CA  SER     7     -12.263 -16.677   4.694  1.00  0.00     0.219 C 
BRANCH  49  50
ATOM     50  C   SER     7     -11.822 -15.712   5.808  1.00  0.00     0.277 C 
ATOM     51  O   SER     7     -12.117 -15.963   6.972  1.00  0.00    -0.268 OA
ATOM     52  N   GLY     8     -10.942 -14.785   5.454  1.00  0.00    -0.226 NA
BRANCH  52  53
ATOM     53  CA  GLY     8     -10.581 -13.658   6.354  1.00  0.00     0.218 C 
BRANCH  53  54
ATOM     54  C   GLY     8      -9.589 -12.602   5.833  1.00  0.00     0.277 C 
ATOM     55  N   GLY     9      -9.307 -11.574   6.646  1.00  0.00    -0.226 NA
ATOM     56  O   GLY     8      -9.064 -12.741   4.741  1.00  0.00    -0.268 OA
BRANCH  55  57
ATOM     57  CA  GLY     9      -8.405 -10.468   6.264  1.00  0.00     0.218 C 
BRANCH  57  58
ATOM     58  C   GLY     9      -8.213  -9.467   7.428  1.00  0.00     0.277 C 
ATOM     59  O   GLY     9      -7.861  -9.881   8.525  1.00  0.00    -0.268 OA
ATOM     60  N   CYS    10      -8.577  -8.196   7.323  1.00  0.00    -0.228 NA
BRANCH  60  61
ATOM     61  CA  CYS    10      -9.232  -7.527   6.173  1.00  0.00     0.198 C 
BRANCH  61  62
ATOM     62  CB  CYS    10     -10.453  -6.701   6.594  1.00  0.00     0.103 C 
ATOM     63  SG  CYS    10     -12.108  -7.350   6.183  1.00  0.00    -0.080 SA
ENDBRANCH  61  62
BRANCH  61  64
ATOM     64  C   CYS    10      -8.334  -6.531   5.436  1.00  0.00     0.275 C 
ATOM     65  O   CYS    10      -7.320  -6.939   4.871  1.00  0.00    -0.268 OA
ATOM     66  N   GLY    11      -8.906  -5.359   5.211  1.00  0.00    -0.225 NA
BRANCH  66  67
ATOM     67  CA  GLY    11      -8.126  -4.113   5.199  1.00  0.00     0.226 C 
BRANCH  67  68
ATOM     68  C   GLY    11      -8.784  -3.250   4.111  1.00  0.00     0.211 C 
ATOM     69  O2  GLY    11      -7.996  -2.688   3.320  1.00  0.00    -0.646 OA
ATOM     70  O1  GLY    11      -9.994  -3.477   3.881  1.00  0.00    -0.646 OA
ENDBRANCH  67  68
ENDBRANCH  66  67
ENDBRANCH  61  64
ENDBRANCH  60  61
ENDBRANCH  57  58
ENDBRANCH  55  57
ENDBRANCH  53  54
ENDBRANCH  52  53
ENDBRANCH  49  50
BRANCH  49  71
ATOM     71  CB  SER     7     -13.383 -15.989   3.911  1.00  0.00     0.216 C 
ATOM     72  OG  SER     7     -14.108 -15.109   4.772  1.00  0.00    -0.218 OA
ENDBRANCH  49  71
ENDBRANCH  47  49
ENDBRANCH  42  46
ENDBRANCH   1  39
TORSDOF 33
ENDMDL
MODEL 2
REMARK VINA RESULT:      -4.7      3.820      9.959
REMARK WARNING: 32 MAX_TORS EXCEEDED!!!
REMARK  33 active torsions:
REMARK  status: ('A' for Active; 'I' for Inactive)
REMARK    1  A    between atoms: CA_2  and  C_8 
REMARK    2  A    between atoms: CA_2  and  CB_3 
REMARK    3  A    between atoms: CB_3  and  CG_4 
REMARK    4  A    between atoms: CG_4  and  CD_5 
REMARK       I    between atoms: C_8  and  N_10 
REMARK    5  A    between atoms: N_10  and  CA_11 
REMARK    6  A    between atoms: CA_11  and  C_12 
REMARK       I    between atoms: C_12  and  N_14 
REMARK    7  A    between atoms: N_14  and  CA_15 
REMARK    8  A    between atoms: CA_15  and  C_20 
REMARK    9  A    between atoms: CA_15  and  CB_16 
REMARK   10  A    between atoms: CB_16  and  CG_17 
REMARK       I    between atoms: C_20  and  N_22 
REMARK   11  A    between atoms: N_22  and  CA_23 
REMARK   12  A    between atoms: CA_23  and  CB_24 
REMARK   13  A    between atoms: CA_23  and  C_28 
REMARK   14  A    between atoms: CB_24  and  CG_25 
REMARK       I    between atoms: C_28  and  N_30 
REMARK   15  A    between atoms: N_30  and  CA_31 
REMARK   16  A    between atoms: CA_31  and  CB_32 
REMARK   17  A    between atoms: CA_31  and  C_39 
REMARK   18  A    between atoms: CB_32  and  CG_33 
REMARK   19  A    between atoms: CG_33  and  CD_34 
REMARK   20  A    between atoms: CD_34  and  NE_35 
REMARK       I    between atoms: C_39  and  N_41 
REMARK   21  A    between atoms: CA_42  and  C_46 
REMARK       I    between atoms: C_46  and  N_48 
REMARK   22  A    between atoms: N_48  and  CA_49 
REMARK   23  A    between atoms: CA_49  and  C_52 
REMARK   24  A    between atoms: CA_49  and  CB_50 
REMARK       I    between atoms: C_52  and  N_54 
REMARK   25  A    between atoms: N_54  and  CA_55 
REMARK   26  A    between atoms: CA_55  and  C_56 
REMARK       I    between atoms: C_56  and  N_58 
REMARK   27  A    between atoms: N_58  and  CA_59 
REMARK   28  A    between atoms: CA_59  and  C_60 
REMARK       I    between atoms: C_60  and  N_62 
REMARK   29  A    between atoms: N_62  and  CA_63 
REMARK   30  A    between atoms: CA_63  and  CB_64 
REMARK   31  A    between atoms: CA_63  and  C_66 
REMARK       I    between atoms: C_66  and  N_68 
REMARK   32  A    between atoms: N_68  and  CA_69 
REMARK   33  A    between atoms: CA_69  and  C_70 
ROOT
ATOM      1  CA  ARG     5      -0.818 -20.914   8.923  1.00  0.00     0.185 C 
ENDROOT
BRANCH   1   2
ATOM      2  N   ARG     5       0.080 -22.027   8.564  1.00  0.00    -0.229 NA
ATOM      3  C   ASN     4      -0.175 -23.314   8.747  1.00  0.00     0.275 C 
ATOM      4  O   ASN     4      -1.072 -23.744   9.464  1.00  0.00    -0.268 OA
BRANCH   3   5
ATOM      5  CA  ASN     4       0.967 -24.223   8.248  1.00  0.00     0.196 C 
BRANCH   5   6
ATOM      6  N   ASN     4       0.542 -24.990   7.057  1.00  0.00    -0.228 NA
ATOM      7  C   LEU     3      -0.028 -26.190   7.128  1.00  0.00     0.274 C 
ATOM      8  O   LEU     3      -0.274 -26.795   8.176  1.00  0.00    -0.268 OA
BRANCH   7   9
ATOM      9  CA  LEU     3      -0.441 -26.787   5.784  1.00  0.00     0.186 C 
BRANCH   9  10
ATOM     10  N   LEU     3      -0.737 -25.698   4.827  1.00  0.00    -0.229 NA
ATOM     11  C   GLY     2      -1.975 -25.256   4.591  1.00  0.00     0.277 C 
ATOM     12  O   GLY     2      -2.945 -25.599   5.251  1.00  0.00    -0.268 OA
BRANCH  11  13
ATOM     13  CA  GLY     2      -2.105 -24.138   3.535  1.00  0.00     0.218 C 
BRANCH  13  14
ATOM     14  N   GLY     2      -3.355 -24.071   2.740  1.00  0.00    -0.226 NA
ATOM     15  C   GLU     1      -4.287 -23.136   2.961  1.00  0.00     0.289 C 
ATOM     16  O   GLU     1      -4.074 -22.199   3.712  1.00  0.00    -0.268 OA
BRANCH  15  17
ATOM     17  CA  GLU     1      -5.622 -23.212   2.174  1.00  0.00     0.381 C 
ATOM     18  N   GLU     1      -6.582 -24.184   2.728  1.00  0.00     0.626 N 
BRANCH  17  19
ATOM     19  CB  GLU     1      -6.233 -21.798   2.105  1.00  0.00     0.060 C 
BRANCH  19  20
ATOM     20  CG  GLU     1      -7.753 -21.640   1.939  1.00  0.00     0.100 C 
BRANCH  20  21
ATOM     21  CD  GLU     1      -8.442 -21.135   3.215  1.00  0.00     0.185 C 
ATOM     22  OE1 GLU     1      -7.740 -20.915   4.219  1.00  0.00    -0.647 OA
ATOM     23  OE2 GLU     1      -9.677 -20.995   3.205  1.00  0.00    -0.647 OA
ENDBRANCH  20  21
ENDBRANCH  19  20
ENDBRANCH  17  19
ENDBRANCH  15  17
ENDBRANCH  13  14
ENDBRANCH  11  13
ENDBRANCH   9  10
BRANCH   9  24
ATOM     24  CB  LEU     3       0.703 -27.665   5.262  1.00  0.00     0.034 C 
BRANCH  24  25
ATOM     25  CG  LEU     3       0.270 -29.093   4.885  1.00  0.00     0.002 C 
ATOM     26  CD1 LEU     3      -0.713 -29.619   5.930  1.00  0.00     0.000 C 
ATOM     27  CD2 LEU     3      -0.374 -29.129   3.495  1.00  0.00     0.000 C 
ENDBRANCH  24  25
ENDBRANCH   9  24
ENDBRANCH   7   9
ENDBRANCH   5   6
BRANCH   5  28
ATOM     28  CB  ASN     4       2.236 -23.413   7.933  1.00  0.00     0.126 C 
BRANCH  28  29
ATOM     29  CG  ASN     4       3.310 -23.491   9.036  1.00  0.00     0.276 C 
ATOM     30  ND2 ASN     4       3.091 -24.347   9.999  1.00  0.00    -0.107 N 
ATOM     31  OD1 ASN     4       4.349 -22.859   9.018  1.00  0.00    -0.269 OA
ENDBRANCH  28  29
ENDBRANCH   5  28
ENDBRANCH   3   5
ENDBRANCH   1   2
BRANCH   1  32
ATOM     32  CB  ARG     5      -0.019 -19.619   9.108  1.00  0.00     0.036 C 
BRANCH  32  33
ATOM     33  CG  ARG     5       1.488 -19.787   8.911  1.00  0.00     0.029 C 
BRANCH  33  34
ATOM     34  CD  ARG     5       2.229 -18.767   9.770  1.00  0.00     0.145 C 
BRANCH  34  35
ATOM     35  NE  ARG     5       2.817 -17.678   8.954  1.00  0.00    -0.083 NA
ATOM     36  CZ  ARG     5       4.130 -17.418   8.857  1.00  0.00     0.782 C 
ATOM     37  NH2 ARG     5       4.605 -16.584   7.918  1.00  0.00     0.063 N 
ATOM     38  NH1 ARG     5       5.018 -18.066   9.598  1.00  0.00     0.063 N 
ENDBRANCH  34  35
ENDBRANCH  33  34
ENDBRANCH  32  33
ENDBRANCH   1  32
BRANCH   1  39
ATOM     39  C   ARG     5      -1.867 -20.719   7.813  1.00  0.00     0.256 C 
ATOM     40  O   ARG     5      -1.502 -20.581   6.642  1.00  0.00    -0.270 OA
ATOM     41  N   PRO     6      -3.153 -20.812   8.165  1.00  0.00    -0.312 N 
ATOM     42  CA  PRO     6      -4.286 -20.618   7.232  1.00  0.00     0.165 C 
ATOM     43  CD  PRO     6      -3.652 -21.275   9.478  1.00  0.00     0.105 C 
ATOM     44  CB  PRO     6      -5.536 -20.721   8.108  1.00  0.00     0.034 C 
ATOM     45  CG  PRO     6      -5.103 -21.677   9.210  1.00  0.00     0.027 C 
BRANCH  42  46
ATOM     46  C   PRO     6      -4.214 -19.248   6.539  1.00  0.00     0.272 C 
ATOM     47  N   SER     7      -4.551 -18.158   7.214  1.00  0.00    -0.226 NA
ATOM     48  O   PRO     6      -3.947 -19.178   5.335  1.00  0.00    -0.269 OA
BRANCH  47  49
ATOM     49  CA  SER     7      -5.021 -18.094   8.619  1.00  0.00     0.219 C 
BRANCH  49  50
ATOM     50  C   SER     7      -6.217 -17.140   8.783  1.00  0.00     0.277 C 
ATOM     51  O   SER     7      -6.792 -17.079   9.865  1.00  0.00    -0.268 OA
ATOM     52  N   GLY     8      -6.400 -16.269   7.801  1.00  0.00    -0.226 NA
BRANCH  52  53
ATOM     53  CA  GLY     8      -7.624 -15.429   7.710  1.00  0.00     0.218 C 
BRANCH  53  54
ATOM     54  C   GLY     8      -7.598 -14.206   6.776  1.00  0.00     0.277 C 
ATOM     55  N   GLY     9      -6.889 -13.142   7.180  1.00  0.00    -0.226 NA
ATOM     56  O   GLY     8      -8.171 -14.245   5.700  1.00  0.00    -0.268 OA
BRANCH  55  57
ATOM     57  CA  GLY     9      -6.808 -11.887   6.405  1.00  0.00     0.218 C 
BRANCH  57  58
ATOM     58  C   GLY     9      -7.619 -10.754   7.077  1.00  0.00     0.277 C 
ATOM     59  O   GLY     9      -8.828 -10.691   6.893  1.00  0.00    -0.268 OA
ATOM     60  N   CYS    10      -7.027  -9.751   7.711  1.00  0.00    -0.228 NA
BRANCH  60  61
ATOM     61  CA  CYS    10      -5.573  -9.501   7.863  1.00  0.00     0.198 C 
BRANCH  61  62
ATOM     62  CB  CYS    10      -5.201  -8.037   7.600  1.00  0.00     0.103 C 
ATOM     63  SG  CYS    10      -6.557  -6.838   7.368  1.00  0.00    -0.080 SA
ENDBRANCH  61  62
BRANCH  61  64
ATOM     64  C   CYS    10      -5.034  -9.785   9.267  1.00  0.00     0.275 C 
ATOM     65  O   CYS    10      -5.422  -9.098  10.210  1.00  0.00    -0.268 OA
ATOM     66  N   GLY    11      -4.431 -10.957   9.382  1.00  0.00    -0.225 NA
BRANCH  66  67
ATOM     67  CA  GLY    11      -3.297 -11.153  10.296  1.00  0.00     0.226 C 
BRANCH  67  68
ATOM     68  C   GLY    11      -2.743 -12.542   9.943  1.00  0.00     0.211 C 
ATOM     69  O2  GLY    11      -1.497 -12.639   9.937  1.00  0.00    -0.646 OA
ATOM     70  O1  GLY    11      -3.538 -13.502  10.064  1.00  0.00    -0.646 OA
ENDBRANCH  67  68
ENDBRANCH  66  67
ENDBRANCH  61  64
ENDBRANCH  60  61
ENDBRANCH  57  58
ENDBRANCH  55  57
ENDBRANCH  53  54
ENDBRANCH  52  53
ENDBRANCH  49  50
BRANCH  49  71
ATOM     71  CB  SER     7      -3.918 -17.608   9.562  1.00  0.00     0.216 C 
ATOM     72  OG  SER     7      -2.697 -17.447   8.841  1.00  0.00    -0.218 OA
ENDBRANCH  49  71
ENDBRANCH  47  49
ENDBRANCH  42  46
ENDBRANCH   1  39
TORSDOF 33
ENDMDL
MODEL 3
REMARK VINA RESULT:      -4.6      3.720     10.049
REMARK WARNING: 32 MAX_TORS EXCEEDED!!!
REMARK  33 active torsions:
REMARK  status: ('A' for Active; 'I' for Inactive)
REMARK    1  A    between atoms: CA_2  and  C_8 
REMARK    2  A    between atoms: CA_2  and  CB_3 
REMARK    3  A    between atoms: CB_3  and  CG_4 
REMARK    4  A    between atoms: CG_4  and  CD_5 
REMARK       I    between atoms: C_8  and  N_10 
REMARK    5  A    between atoms: N_10  and  CA_11 
REMARK    6  A    between atoms: CA_11  and  C_12 
REMARK       I    between atoms: C_12  and  N_14 
REMARK    7  A    between atoms: N_14  and  CA_15 
REMARK    8  A    between atoms: CA_15  and  C_20 
REMARK    9  A    between atoms: CA_15  and  CB_16 
REMARK   10  A    between atoms: CB_16  and  CG_17 
REMARK       I    between atoms: C_20  and  N_22 
REMARK   11  A    between atoms: N_22  and  CA_23 
REMARK   12  A    between atoms: CA_23  and  CB_24 
REMARK   13  A    between atoms: CA_23  and  C_28 
REMARK   14  A    between atoms: CB_24  and  CG_25 
REMARK       I    between atoms: C_28  and  N_30 
REMARK   15  A    between atoms: N_30  and  CA_31 
REMARK   16  A    between atoms: CA_31  and  CB_32 
REMARK   17  A    between atoms: CA_31  and  C_39 
REMARK   18  A    between atoms: CB_32  and  CG_33 
REMARK   19  A    between atoms: CG_33  and  CD_34 
REMARK   20  A    between atoms: CD_34  and  NE_35 
REMARK       I    between atoms: C_39  and  N_41 
REMARK   21  A    between atoms: CA_42  and  C_46 
REMARK       I    between atoms: C_46  and  N_48 
REMARK   22  A    between atoms: N_48  and  CA_49 
REMARK   23  A    between atoms: CA_49  and  C_52 
REMARK   24  A    between atoms: CA_49  and  CB_50 
REMARK       I    between atoms: C_52  and  N_54 
REMARK   25  A    between atoms: N_54  and  CA_55 
REMARK   26  A    between atoms: CA_55  and  C_56 
REMARK       I    between atoms: C_56  and  N_58 
REMARK   27  A    between atoms: N_58  and  CA_59 
REMARK   28  A    between atoms: CA_59  and  C_60 
REMARK       I    between atoms: C_60  and  N_62 
REMARK   29  A    between atoms: N_62  and  CA_63 
REMARK   30  A    between atoms: CA_63  and  CB_64 
REMARK   31  A    between atoms: CA_63  and  C_66 
REMARK       I    between atoms: C_66  and  N_68 
REMARK   32  A    between atoms: N_68  and  CA_69 
REMARK   33  A    between atoms: CA_69  and  C_70 
ROOT
ATOM      1  CA  ARG     5      -0.951 -21.517   8.509  1.00  0.00     0.185 C 
ENDROOT
BRANCH   1   2
ATOM      2  N   ARG     5      -0.468 -22.895   8.301  1.00  0.00    -0.229 NA
ATOM      3  C   ASN     4       0.539 -23.250   7.519  1.00  0.00     0.275 C 
ATOM      4  O   ASN     4       1.044 -22.521   6.671  1.00  0.00    -0.268 OA
BRANCH   3   5
ATOM      5  CA  ASN     4       0.797 -24.771   7.534  1.00  0.00     0.196 C 
BRANCH   5   6
ATOM      6  N   ASN     4       0.187 -25.417   6.353  1.00  0.00    -0.228 NA
ATOM      7  C   LEU     3      -0.810 -26.294   6.436  1.00  0.00     0.274 C 
ATOM      8  O   LEU     3      -1.343 -26.663   7.487  1.00  0.00    -0.268 OA
BRANCH   7   9
ATOM      9  CA  LEU     3      -1.334 -26.803   5.093  1.00  0.00     0.186 C 
BRANCH   9  10
ATOM     10  N   LEU     3      -1.383 -25.685   4.125  1.00  0.00    -0.229 NA
ATOM     11  C   GLY     2      -2.425 -25.472   3.316  1.00  0.00     0.277 C 
ATOM     12  O   GLY     2      -3.481 -26.078   3.411  1.00  0.00    -0.268 OA
BRANCH  11  13
ATOM     13  CA  GLY     2      -2.292 -24.283   2.341  1.00  0.00     0.218 C 
BRANCH  13  14
ATOM     14  N   GLY     2      -3.532 -23.605   1.894  1.00  0.00    -0.226 NA
ATOM     15  C   GLU     1      -4.216 -22.777   2.692  1.00  0.00     0.289 C 
ATOM     16  O   GLU     1      -3.759 -22.413   3.763  1.00  0.00    -0.268 OA
BRANCH  15  17
ATOM     17  CA  GLU     1      -5.572 -22.209   2.193  1.00  0.00     0.381 C 
ATOM     18  N   GLU     1      -6.395 -23.194   1.468  1.00  0.00     0.626 N 
BRANCH  17  19
ATOM     19  CB  GLU     1      -6.332 -21.623   3.400  1.00  0.00     0.060 C 
BRANCH  19  20
ATOM     20  CG  GLU     1      -7.794 -21.181   3.227  1.00  0.00     0.100 C 
BRANCH  20  21
ATOM     21  CD  GLU     1      -8.496 -20.910   4.566  1.00  0.00     0.185 C 
ATOM     22  OE1 GLU     1      -7.884 -20.260   5.434  1.00  0.00    -0.647 OA
ATOM     23  OE2 GLU     1      -9.634 -21.378   4.743  1.00  0.00    -0.647 OA
ENDBRANCH  20  21
ENDBRANCH  19  20
ENDBRANCH  17  19
ENDBRANCH  15  17
ENDBRANCH  13  14
ENDBRANCH  11  13
ENDBRANCH   9  10
BRANCH   9  24
ATOM     24  CB  LEU     3      -0.401 -27.911   4.589  1.00  0.00     0.034 C 
BRANCH  24  25
ATOM     25  CG  LEU     3      -1.138 -29.181   4.126  1.00  0.00     0.002 C 
ATOM     26  CD1 LEU     3      -2.554 -29.186   4.699  1.00  0.00     0.000 C 
ATOM     27  CD2 LEU     3      -1.192 -29.265   2.596  1.00  0.00     0.000 C 
ENDBRANCH  24  25
ENDBRANCH   9  24
ENDBRANCH   7   9
ENDBRANCH   5   6
BRANCH   5  28
ATOM     28  CB  ASN     4       2.302 -25.087   7.594  1.00  0.00     0.126 C 
BRANCH  28  29
ATOM     29  CG  ASN     4       2.984 -24.607   8.890  1.00  0.00     0.276 C 
ATOM     30  ND2 ASN     4       2.594 -25.181   9.997  1.00  0.00    -0.107 N 
ATOM     31  OD1 ASN     4       3.886 -23.792   8.920  1.00  0.00    -0.269 OA
ENDBRANCH  28  29
ENDBRANCH   5  28
ENDBRANCH   3   5
ENDBRANCH   1   2
BRANCH   1  32
ATOM     32  CB  ARG     5       0.204 -20.518   8.378  1.00  0.00     0.036 C 
BRANCH  32  33
ATOM     33  CG  ARG     5       0.911 -20.213   9.699  1.00  0.00     0.029 C 
BRANCH  33  34
ATOM     34  CD  ARG     5       0.840 -18.715   9.979  1.00  0.00     0.145 C 
BRANCH  34  35
ATOM     35  NE  ARG     5       1.613 -17.929   8.987  1.00  0.00    -0.083 NA
ATOM     36  CZ  ARG     5       1.508 -16.603   8.812  1.00  0.00     0.782 C 
ATOM     37  NH2 ARG     5       2.405 -15.927   8.077  1.00  0.00     0.063 N 
ATOM     38  NH1 ARG     5       0.593 -15.893   9.456  1.00  0.00     0.063 N 
ENDBRANCH  34  35
ENDBRANCH  33  34
ENDBRANCH  32  33
ENDBRANCH   1  32
BRANCH   1  39
ATOM     39  C   ARG     5      -2.037 -21.189   7.467  1.00  0.00     0.256 C 
ATOM     40  O   ARG     5      -1.722 -21.021   6.285  1.00  0.00    -0.270 OA
ATOM     41  N   PRO     6      -3.307 -21.203   7.884  1.00  0.00    -0.312 N 
ATOM     42  CA  PRO     6      -4.467 -20.878   7.024  1.00  0.00     0.165 C 
ATOM     43  CD  PRO     6      -3.773 -21.692   9.200  1.00  0.00     0.105 C 
ATOM     44  CB  PRO     6      -5.675 -20.931   7.960  1.00  0.00     0.034 C 
ATOM     45  CG  PRO     6      -5.262 -21.971   8.992  1.00  0.00     0.027 C 
BRANCH  42  46
ATOM     46  C   PRO     6      -4.324 -19.484   6.391  1.00  0.00     0.272 C 
ATOM     47  N   SER     7      -4.401 -18.408   7.162  1.00  0.00    -0.226 NA
ATOM     48  O   PRO     6      -4.246 -19.368   5.164  1.00  0.00    -0.269 OA
BRANCH  47  49
ATOM     49  CA  SER     7      -4.627 -18.380   8.627  1.00  0.00     0.219 C 
BRANCH  49  50
ATOM     50  C   SER     7      -5.801 -17.462   9.011  1.00  0.00     0.277 C 
ATOM     51  O   SER     7      -6.597 -17.832   9.867  1.00  0.00    -0.268 OA
ATOM     52  N   GLY     8      -5.736 -16.220   8.552  1.00  0.00    -0.226 NA
BRANCH  52  53
ATOM     53  CA  GLY     8      -6.884 -15.281   8.657  1.00  0.00     0.218 C 
BRANCH  53  54
ATOM     54  C   GLY     8      -7.720 -15.011   7.393  1.00  0.00     0.277 C 
ATOM     55  N   GLY     9      -7.329 -13.999   6.605  1.00  0.00    -0.226 NA
ATOM     56  O   GLY     8      -8.667 -15.729   7.120  1.00  0.00    -0.268 OA
BRANCH  55  57
ATOM     57  CA  GLY     9      -8.057 -13.601   5.383  1.00  0.00     0.218 C 
BRANCH  57  58
ATOM     58  C   GLY     9      -8.840 -12.283   5.595  1.00  0.00     0.277 C 
ATOM     59  O   GLY     9      -8.235 -11.274   5.934  1.00  0.00    -0.268 OA
ATOM     60  N   CYS    10     -10.165 -12.247   5.583  1.00  0.00    -0.228 NA
BRANCH  60  61
ATOM     61  CA  CYS    10     -11.106 -13.382   5.417  1.00  0.00     0.198 C 
BRANCH  61  62
ATOM     62  CB  CYS    10     -12.484 -13.091   6.023  1.00  0.00     0.103 C 
ATOM     63  SG  CYS    10     -13.818 -14.304   5.735  1.00  0.00    -0.080 SA
ENDBRANCH  61  62
BRANCH  61  64
ATOM     64  C   CYS    10     -11.399 -13.743   3.959  1.00  0.00     0.275 C 
ATOM     65  O   CYS    10     -11.645 -12.845   3.156  1.00  0.00    -0.268 OA
ATOM     66  N   GLY    11     -11.049 -14.976   3.633  1.00  0.00    -0.225 NA
BRANCH  66  67
ATOM     67  CA  GLY    11     -11.804 -15.752   2.639  1.00  0.00     0.226 C 
BRANCH  67  68
ATOM     68  C   GLY    11     -12.176 -17.057   3.361  1.00  0.00     0.211 C 
ATOM     69  O2  GLY    11     -12.488 -18.013   2.618  1.00  0.00    -0.646 OA
ATOM     70  O1  GLY    11     -11.785 -17.165   4.545  1.00  0.00    -0.646 OA
ENDBRANCH  67  68
ENDBRANCH  66  67
ENDBRANCH  61  64
ENDBRANCH  60  61
ENDBRANCH  57  58
ENDBRANCH  55  57
ENDBRANCH  53  54
ENDBRANCH  52  53
ENDBRANCH  49  50
BRANCH  49  71
ATOM     71  CB  SER     7      -3.393 -17.881   9.381  1.00  0.00     0.216 C 
ATOM     72  OG  SER     7      -2.253 -17.908   8.520  1.00  0.00    -0.218 OA
ENDBRANCH  49  71
ENDBRANCH  47  49
ENDBRANCH  42  46
ENDBRANCH   1  39
TORSDOF 33
ENDMDL
MODEL 4
REMARK VINA RESULT:      -4.6      3.505      9.292
REMARK WARNING: 32 MAX_TORS EXCEEDED!!!
REMARK  33 active torsions:
REMARK  status: ('A' for Active; 'I' for Inactive)
REMARK    1  A    between atoms: CA_2  and  C_8 
REMARK    2  A    between atoms: CA_2  and  CB_3 
REMARK    3  A    between atoms: CB_3  and  CG_4 
REMARK    4  A    between atoms: CG_4  and  CD_5 
REMARK       I    between atoms: C_8  and  N_10 
REMARK    5  A    between atoms: N_10  and  CA_11 
REMARK    6  A    between atoms: CA_11  and  C_12 
REMARK       I    between atoms: C_12  and  N_14 
REMARK    7  A    between atoms: N_14  and  CA_15 
REMARK    8  A    between atoms: CA_15  and  C_20 
REMARK    9  A    between atoms: CA_15  and  CB_16 
REMARK   10  A    between atoms: CB_16  and  CG_17 
REMARK       I    between atoms: C_20  and  N_22 
REMARK   11  A    between atoms: N_22  and  CA_23 
REMARK   12  A    between atoms: CA_23  and  CB_24 
REMARK   13  A    between atoms: CA_23  and  C_28 
REMARK   14  A    between atoms: CB_24  and  CG_25 
REMARK       I    between atoms: C_28  and  N_30 
REMARK   15  A    between atoms: N_30  and  CA_31 
REMARK   16  A    between atoms: CA_31  and  CB_32 
REMARK   17  A    between atoms: CA_31  and  C_39 
REMARK   18  A    between atoms: CB_32  and  CG_33 
REMARK   19  A    between atoms: CG_33  and  CD_34 
REMARK   20  A    between atoms: CD_34  and  NE_35 
REMARK       I    between atoms: C_39  and  N_41 
REMARK   21  A    between atoms: CA_42  and  C_46 
REMARK       I    between atoms: C_46  and  N_48 
REMARK   22  A    between atoms: N_48  and  CA_49 
REMARK   23  A    between atoms: CA_49  and  C_52 
REMARK   24  A    between atoms: CA_49  and  CB_50 
REMARK       I    between atoms: C_52  and  N_54 
REMARK   25  A    between atoms: N_54  and  CA_55 
REMARK   26  A    between atoms: CA_55  and  C_56 
REMARK       I    between atoms: C_56  and  N_58 
REMARK   27  A    between atoms: N_58  and  CA_59 
REMARK   28  A    between atoms: CA_59  and  C_60 
REMARK       I    between atoms: C_60  and  N_62 
REMARK   29  A    between atoms: N_62  and  CA_63 
REMARK   30  A    between atoms: CA_63  and  CB_64 
REMARK   31  A    between atoms: CA_63  and  C_66 
REMARK       I    between atoms: C_66  and  N_68 
REMARK   32  A    between atoms: N_68  and  CA_69 
REMARK   33  A    between atoms: CA_69  and  C_70 
ROOT
ATOM      1  CA  ARG     5      -0.983 -21.409   8.757  1.00  0.00     0.185 C 
ENDROOT
BRANCH   1   2
ATOM      2  N   ARG     5      -0.398 -22.750   8.576  1.00  0.00    -0.229 NA
ATOM      3  C   ASN     4       0.697 -23.028   7.885  1.00  0.00     0.275 C 
ATOM      4  O   ASN     4       1.229 -22.254   7.096  1.00  0.00    -0.268 OA
BRANCH   3   5
ATOM      5  CA  ASN     4       1.048 -24.530   7.905  1.00  0.00     0.196 C 
BRANCH   5   6
ATOM      6  N   ASN     4       0.450 -25.222   6.743  1.00  0.00    -0.228 NA
ATOM      7  C   LEU     3      -0.713 -25.866   6.798  1.00  0.00     0.274 C 
ATOM      8  O   LEU     3      -1.425 -25.957   7.803  1.00  0.00    -0.268 OA
BRANCH   7   9
ATOM      9  CA  LEU     3      -1.180 -26.467   5.472  1.00  0.00     0.186 C 
BRANCH   9  10
ATOM     10  N   LEU     3      -1.438 -25.382   4.500  1.00  0.00    -0.229 NA
ATOM     11  C   GLY     2      -2.093 -25.577   3.352  1.00  0.00     0.277 C 
ATOM     12  O   GLY     2      -2.667 -26.620   3.078  1.00  0.00    -0.268 OA
BRANCH  11  13
ATOM     13  CA  GLY     2      -2.240 -24.342   2.438  1.00  0.00     0.218 C 
BRANCH  13  14
ATOM     14  N   GLY     2      -3.562 -24.086   1.817  1.00  0.00    -0.226 NA
ATOM     15  C   GLU     1      -4.592 -23.599   2.518  1.00  0.00     0.289 C 
ATOM     16  O   GLU     1      -4.443 -23.190   3.657  1.00  0.00    -0.268 OA
BRANCH  15  17
ATOM     17  CA  GLU     1      -5.976 -23.481   1.825  1.00  0.00     0.381 C 
ATOM     18  N   GLU     1      -7.029 -24.290   2.464  1.00  0.00     0.626 N 
BRANCH  17  19
ATOM     19  CB  GLU     1      -6.371 -21.991   1.768  1.00  0.00     0.060 C 
BRANCH  19  20
ATOM     20  CG  GLU     1      -7.792 -21.572   2.176  1.00  0.00     0.100 C 
BRANCH  20  21
ATOM     21  CD  GLU     1      -7.874 -21.084   3.630  1.00  0.00     0.185 C 
ATOM     22  OE1 GLU     1      -8.973 -20.691   4.061  1.00  0.00    -0.647 OA
ATOM     23  OE2 GLU     1      -6.833 -21.073   4.311  1.00  0.00    -0.647 OA
ENDBRANCH  20  21
ENDBRANCH  19  20
ENDBRANCH  17  19
ENDBRANCH  15  17
ENDBRANCH  13  14
ENDBRANCH  11  13
ENDBRANCH   9  10
BRANCH   9  24
ATOM     24  CB  LEU     3      -0.091 -27.411   4.948  1.00  0.00     0.034 C 
BRANCH  24  25
ATOM     25  CG  LEU     3      -0.321 -28.889   5.312  1.00  0.00     0.002 C 
ATOM     26  CD1 LEU     3      -1.821 -29.163   5.400  1.00  0.00     0.000 C 
ATOM     27  CD2 LEU     3       0.323 -29.820   4.280  1.00  0.00     0.000 C 
ENDBRANCH  24  25
ENDBRANCH   9  24
ENDBRANCH   7   9
ENDBRANCH   5   6
BRANCH   5  28
ATOM     28  CB  ASN     4       2.570 -24.753   7.930  1.00  0.00     0.126 C 
BRANCH  28  29
ATOM     29  CG  ASN     4       3.232 -24.354   9.263  1.00  0.00     0.276 C 
ATOM     30  ND2 ASN     4       4.054 -23.340   9.221  1.00  0.00    -0.107 N 
ATOM     31  OD1 ASN     4       2.982 -24.883  10.329  1.00  0.00    -0.269 OA
ENDBRANCH  28  29
ENDBRANCH   5  28
ENDBRANCH   3   5
ENDBRANCH   1   2
BRANCH   1  32
ATOM     32  CB  ARG     5       0.118 -20.343   8.793  1.00  0.00     0.036 C 
BRANCH  32  33
ATOM     33  CG  ARG     5       0.424 -19.817  10.196  1.00  0.00     0.029 C 
BRANCH  33  34
ATOM     34  CD  ARG     5       1.258 -18.544  10.090  1.00  0.00     0.145 C 
BRANCH  34  35
ATOM     35  NE  ARG     5       0.414 -17.344   9.873  1.00  0.00    -0.083 NA
ATOM     36  CZ  ARG     5       0.760 -16.292   9.117  1.00  0.00     0.782 C 
ATOM     37  NH2 ARG     5      -0.144 -15.361   8.769  1.00  0.00     0.063 N 
ATOM     38  NH1 ARG     5       1.968 -16.195   8.580  1.00  0.00     0.063 N 
ENDBRANCH  34  35
ENDBRANCH  33  34
ENDBRANCH  32  33
ENDBRANCH   1  32
BRANCH   1  39
ATOM     39  C   ARG     5      -1.952 -21.109   7.598  1.00  0.00     0.256 C 
ATOM     40  O   ARG     5      -1.508 -20.909   6.463  1.00  0.00    -0.270 OA
ATOM     41  N   PRO     6      -3.261 -21.182   7.862  1.00  0.00    -0.312 N 
ATOM     42  CA  PRO     6      -4.325 -20.892   6.875  1.00  0.00     0.165 C 
ATOM     43  CD  PRO     6      -3.856 -21.711   9.109  1.00  0.00     0.105 C 
ATOM     44  CB  PRO     6      -5.631 -21.010   7.662  1.00  0.00     0.034 C 
ATOM     45  CG  PRO     6      -5.298 -22.047   8.724  1.00  0.00     0.027 C 
BRANCH  42  46
ATOM     46  C   PRO     6      -4.169 -19.484   6.278  1.00  0.00     0.272 C 
ATOM     47  N   SER     7      -4.429 -18.425   7.033  1.00  0.00    -0.226 NA
ATOM     48  O   PRO     6      -3.907 -19.346   5.080  1.00  0.00    -0.269 OA
BRANCH  47  49
ATOM     49  CA  SER     7      -4.882 -18.430   8.444  1.00  0.00     0.219 C 
BRANCH  49  50
ATOM     50  C   SER     7      -6.021 -17.424   8.687  1.00  0.00     0.277 C 
ATOM     51  O   SER     7      -6.436 -17.251   9.828  1.00  0.00    -0.268 OA
ATOM     52  N   GLY     8      -6.319 -16.632   7.666  1.00  0.00    -0.226 NA
BRANCH  52  53
ATOM     53  CA  GLY     8      -7.523 -15.759   7.672  1.00  0.00     0.218 C 
BRANCH  53  54
ATOM     54  C   GLY     8      -7.457 -14.426   6.905  1.00  0.00     0.277 C 
ATOM     55  N   GLY     9      -6.871 -13.392   7.525  1.00  0.00    -0.226 NA
ATOM     56  O   GLY     8      -7.888 -14.352   5.766  1.00  0.00    -0.268 OA
BRANCH  55  57
ATOM     57  CA  GLY     9      -6.772 -12.045   6.927  1.00  0.00     0.218 C 
BRANCH  57  58
ATOM     58  C   GLY     9      -5.815 -11.136   7.735  1.00  0.00     0.277 C 
ATOM     59  O   GLY     9      -4.987 -11.647   8.479  1.00  0.00    -0.268 OA
ATOM     60  N   CYS    10      -5.971  -9.820   7.778  1.00  0.00    -0.228 NA
BRANCH  60  61
ATOM     61  CA  CYS    10      -7.036  -9.007   7.142  1.00  0.00     0.198 C 
BRANCH  61  62
ATOM     62  CB  CYS    10      -8.283  -8.884   8.025  1.00  0.00     0.103 C 
ATOM     63  SG  CYS    10      -9.819  -9.687   7.453  1.00  0.00    -0.080 SA
ENDBRANCH  61  62
BRANCH  61  64
ATOM     64  C   CYS    10      -6.629  -7.561   6.853  1.00  0.00     0.275 C 
ATOM     65  O   CYS    10      -5.578  -7.126   7.322  1.00  0.00    -0.268 OA
ATOM     66  N   GLY    11      -7.300  -7.005   5.857  1.00  0.00    -0.225 NA
BRANCH  66  67
ATOM     67  CA  GLY    11      -7.616  -5.569   5.850  1.00  0.00     0.226 C 
BRANCH  67  68
ATOM     68  C   GLY    11      -7.107  -5.062   4.491  1.00  0.00     0.211 C 
ATOM     69  O2  GLY    11      -7.037  -5.922   3.587  1.00  0.00    -0.646 OA
ATOM     70  O1  GLY    11      -7.170  -3.826   4.304  1.00  0.00    -0.646 OA
ENDBRANCH  67  68
ENDBRANCH  66  67
ENDBRANCH  61  64
ENDBRANCH  60  61
ENDBRANCH  57  58
ENDBRANCH  55  57
ENDBRANCH  53  54
ENDBRANCH  52  53
ENDBRANCH  49  50
BRANCH  49  71
ATOM     71  CB  SER     7      -3.746 -18.074   9.405  1.00  0.00     0.216 C 
ATOM     72  OG  SER     7      -3.309 -16.735   9.167  1.00  0.00    -0.218 OA
ENDBRANCH  49  71
ENDBRANCH  47  49
ENDBRANCH  42  46
ENDBRANCH   1  39
TORSDOF 33
ENDMDL
MODEL 5
REMARK VINA RESULT:      -4.5      2.960      5.076
REMARK WARNING: 32 MAX_TORS EXCEEDED!!!
REMARK  33 active torsions:
REMARK  status: ('A' for Active; 'I' for Inactive)
REMARK    1  A    between atoms: CA_2  and  C_8 
REMARK    2  A    between atoms: CA_2  and  CB_3 
REMARK    3  A    between atoms: CB_3  and  CG_4 
REMARK    4  A    between atoms: CG_4  and  CD_5 
REMARK       I    between atoms: C_8  and  N_10 
REMARK    5  A    between atoms: N_10  and  CA_11 
REMARK    6  A    between atoms: CA_11  and  C_12 
REMARK       I    between atoms: C_12  and  N_14 
REMARK    7  A    between atoms: N_14  and  CA_15 
REMARK    8  A    between atoms: CA_15  and  C_20 
REMARK    9  A    between atoms: CA_15  and  CB_16 
REMARK   10  A    between atoms: CB_16  and  CG_17 
REMARK       I    between atoms: C_20  and  N_22 
REMARK   11  A    between atoms: N_22  and  CA_23 
REMARK   12  A    between atoms: CA_23  and  CB_24 
REMARK   13  A    between atoms: CA_23  and  C_28 
REMARK   14  A    between atoms: CB_24  and  CG_25 
REMARK       I    between atoms: C_28  and  N_30 
REMARK   15  A    between atoms: N_30  and  CA_31 
REMARK   16  A    between atoms: CA_31  and  CB_32 
REMARK   17  A    between atoms: CA_31  and  C_39 
REMARK   18  A    between atoms: CB_32  and  CG_33 
REMARK   19  A    between atoms: CG_33  and  CD_34 
REMARK   20  A    between atoms: CD_34  and  NE_35 
REMARK       I    between atoms: C_39  and  N_41 
REMARK   21  A    between atoms: CA_42  and  C_46 
REMARK       I    between atoms: C_46  and  N_48 
REMARK   22  A    between atoms: N_48  and  CA_49 
REMARK   23  A    between atoms: CA_49  and  C_52 
REMARK   24  A    between atoms: CA_49  and  CB_50 
REMARK       I    between atoms: C_52  and  N_54 
REMARK   25  A    between atoms: N_54  and  CA_55 
REMARK   26  A    between atoms: CA_55  and  C_56 
REMARK       I    between atoms: C_56  and  N_58 
REMARK   27  A    between atoms: N_58  and  CA_59 
REMARK   28  A    between atoms: CA_59  and  C_60 
REMARK       I    between atoms: C_60  and  N_62 
REMARK   29  A    between atoms: N_62  and  CA_63 
REMARK   30  A    between atoms: CA_63  and  CB_64 
REMARK   31  A    between atoms: CA_63  and  C_66 
REMARK       I    between atoms: C_66  and  N_68 
REMARK   32  A    between atoms: N_68  and  CA_69 
REMARK   33  A    between atoms: CA_69  and  C_70 
ROOT
ATOM      1  CA  ARG     5      -8.536 -21.574   5.790  1.00  0.00     0.185 C 
ENDROOT
BRANCH   1   2
ATOM      2  N   ARG     5      -7.253 -21.199   5.167  1.00  0.00    -0.229 NA
ATOM      3  C   ASN     4      -6.278 -22.035   4.846  1.00  0.00     0.275 C 
ATOM      4  O   ASN     4      -6.201 -23.192   5.248  1.00  0.00    -0.268 OA
BRANCH   3   5
ATOM      5  CA  ASN     4      -5.073 -21.323   4.196  1.00  0.00     0.196 C 
BRANCH   5   6
ATOM      6  N   ASN     4      -3.805 -21.796   4.790  1.00  0.00    -0.228 NA
ATOM      7  C   LEU     3      -3.250 -21.240   5.863  1.00  0.00     0.274 C 
ATOM      8  O   LEU     3      -3.722 -20.285   6.488  1.00  0.00    -0.268 OA
BRANCH   7   9
ATOM      9  CA  LEU     3      -1.967 -21.914   6.349  1.00  0.00     0.186 C 
BRANCH   9  10
ATOM     10  N   LEU     3      -1.384 -21.128   7.459  1.00  0.00    -0.229 NA
ATOM     11  C   GLY     2      -0.073 -21.095   7.713  1.00  0.00     0.277 C 
ATOM     12  O   GLY     2       0.767 -21.578   6.967  1.00  0.00    -0.268 OA
BRANCH  11  13
ATOM     13  CA  GLY     2       0.359 -20.253   8.932  1.00  0.00     0.218 C 
BRANCH  13  14
ATOM     14  N   GLY     2       1.320 -19.146   8.712  1.00  0.00    -0.226 NA
ATOM     15  C   GLU     1       2.566 -19.181   9.198  1.00  0.00     0.289 C 
ATOM     16  O   GLU     1       3.019 -20.196   9.699  1.00  0.00    -0.268 OA
BRANCH  15  17
ATOM     17  CA  GLU     1       3.466 -17.927   9.033  1.00  0.00     0.381 C 
ATOM     18  N   GLU     1       4.907 -18.234   8.988  1.00  0.00     0.626 N 
BRANCH  17  19
ATOM     19  CB  GLU     1       3.017 -17.162   7.772  1.00  0.00     0.060 C 
BRANCH  19  20
ATOM     20  CG  GLU     1       2.681 -15.666   7.877  1.00  0.00     0.100 C 
BRANCH  20  21
ATOM     21  CD  GLU     1       3.645 -14.781   7.074  1.00  0.00     0.185 C 
ATOM     22  OE1 GLU     1       3.292 -14.395   5.945  1.00  0.00    -0.647 OA
ATOM     23  OE2 GLU     1       4.753 -14.511   7.570  1.00  0.00    -0.647 OA
ENDBRANCH  20  21
ENDBRANCH  19  20
ENDBRANCH  17  19
ENDBRANCH  15  17
ENDBRANCH  13  14
ENDBRANCH  11  13
ENDBRANCH   9  10
BRANCH   9  24
ATOM     24  CB  LEU     3      -2.303 -23.335   6.816  1.00  0.00     0.034 C 
BRANCH  24  25
ATOM     25  CG  LEU     3      -2.025 -24.419   5.758  1.00  0.00     0.002 C 
ATOM     26  CD1 LEU     3      -0.664 -25.057   6.030  1.00  0.00     0.000 C 
ATOM     27  CD2 LEU     3      -3.118 -25.493   5.764  1.00  0.00     0.000 C 
ENDBRANCH  24  25
ENDBRANCH   9  24
ENDBRANCH   7   9
ENDBRANCH   5   6
BRANCH   5  28
ATOM     28  CB  ASN     4      -5.055 -21.525   2.671  1.00  0.00     0.126 C 
BRANCH  28  29
ATOM     29  CG  ASN     4      -4.216 -22.736   2.217  1.00  0.00     0.276 C 
ATOM     30  ND2 ASN     4      -4.813 -23.898   2.245  1.00  0.00    -0.107 N 
ATOM     31  OD1 ASN     4      -3.082 -22.652   1.787  1.00  0.00    -0.269 OA
ENDBRANCH  28  29
ENDBRANCH   5  28
ENDBRANCH   3   5
ENDBRANCH   1   2
BRANCH   1  32
ATOM     32  CB  ARG     5      -8.550 -21.179   7.271  1.00  0.00     0.036 C 
BRANCH  32  33
ATOM     33  CG  ARG     5      -7.682 -19.963   7.596  1.00  0.00     0.029 C 
BRANCH  33  34
ATOM     34  CD  ARG     5      -8.345 -19.146   8.700  1.00  0.00     0.145 C 
BRANCH  34  35
ATOM     35  NE  ARG     5      -9.821 -19.121   8.560  1.00  0.00    -0.083 NA
ATOM     36  CZ  ARG     5     -10.526 -18.089   8.073  1.00  0.00     0.782 C 
ATOM     37  NH2 ARG     5     -11.822 -18.226   7.747  1.00  0.00     0.063 N 
ATOM     38  NH1 ARG     5      -9.945 -16.935   7.776  1.00  0.00     0.063 N 
ENDBRANCH  34  35
ENDBRANCH  33  34
ENDBRANCH  32  33
ENDBRANCH   1  32
BRANCH   1  39
ATOM     39  C   ARG     5      -9.691 -20.867   5.057  1.00  0.00     0.256 C 
ATOM     40  O   ARG     5      -9.833 -19.645   5.172  1.00  0.00    -0.270 OA
ATOM     41  N   PRO     6     -10.439 -21.609   4.235  1.00  0.00    -0.312 N 
ATOM     42  CA  PRO     6     -11.605 -21.097   3.482  1.00  0.00     0.165 C 
ATOM     43  CD  PRO     6     -10.138 -22.997   3.820  1.00  0.00     0.105 C 
ATOM     44  CB  PRO     6     -12.184 -22.323   2.774  1.00  0.00     0.034 C 
ATOM     45  CG  PRO     6     -10.958 -23.195   2.544  1.00  0.00     0.027 C 
BRANCH  42  46
ATOM     46  C   PRO     6     -12.645 -20.463   4.421  1.00  0.00     0.272 C 
ATOM     47  N   SER     7     -12.994 -19.196   4.245  1.00  0.00    -0.226 NA
ATOM     48  O   PRO     6     -13.068 -21.097   5.392  1.00  0.00    -0.269 OA
BRANCH  47  49
ATOM     49  CA  SER     7     -12.475 -18.267   3.212  1.00  0.00     0.219 C 
BRANCH  49  50
ATOM     50  C   SER     7     -12.495 -16.805   3.691  1.00  0.00     0.277 C 
ATOM     51  O   SER     7     -13.390 -16.431   4.442  1.00  0.00    -0.268 OA
ATOM     52  N   GLY     8     -11.400 -16.101   3.441  1.00  0.00    -0.226 NA
BRANCH  52  53
ATOM     53  CA  GLY     8     -11.345 -14.629   3.649  1.00  0.00     0.218 C 
BRANCH  53  54
ATOM     54  C   GLY     8     -10.912 -14.107   5.030  1.00  0.00     0.277 C 
ATOM     55  N   GLY     9      -9.594 -14.022   5.267  1.00  0.00    -0.226 NA
ATOM     56  O   GLY     8     -11.750 -13.751   5.842  1.00  0.00    -0.268 OA
BRANCH  55  57
ATOM     57  CA  GLY     9      -9.035 -13.576   6.559  1.00  0.00     0.218 C 
BRANCH  57  58
ATOM     58  C   GLY     9      -7.580 -14.067   6.745  1.00  0.00     0.277 C 
ATOM     59  O   GLY     9      -7.246 -15.147   6.274  1.00  0.00    -0.268 OA
ATOM     60  N   CYS    10      -6.725 -13.437   7.540  1.00  0.00    -0.228 NA
BRANCH  60  61
ATOM     61  CA  CYS    10      -6.976 -12.244   8.384  1.00  0.00     0.198 C 
BRANCH  61  62
ATOM     62  CB  CYS    10      -7.079 -12.593   9.874  1.00  0.00     0.103 C 
ATOM     63  SG  CYS    10      -8.098 -14.032  10.346  1.00  0.00    -0.080 SA
ENDBRANCH  61  62
BRANCH  61  64
ATOM     64  C   CYS    10      -5.871 -11.187   8.316  1.00  0.00     0.275 C 
ATOM     65  O   CYS    10      -4.700 -11.532   8.463  1.00  0.00    -0.268 OA
ATOM     66  N   GLY    11      -6.262 -10.038   7.790  1.00  0.00    -0.225 NA
BRANCH  66  67
ATOM     67  CA  GLY    11      -5.694  -8.757   8.235  1.00  0.00     0.226 C 
BRANCH  67  68
ATOM     68  C   GLY    11      -6.598  -7.687   7.602  1.00  0.00     0.211 C 
ATOM     69  O2  GLY    11      -6.085  -7.031   6.670  1.00  0.00    -0.646 OA
ATOM     70  O1  GLY    11      -7.828  -7.815   7.799  1.00  0.00    -0.646 OA
ENDBRANCH  67  68
ENDBRANCH  66  67
ENDBRANCH  61  64
ENDBRANCH  60  61
ENDBRANCH  57  58
ENDBRANCH  55  57
ENDBRANCH  53  54
ENDBRANCH  52  53
ENDBRANCH  49  50
BRANCH  49  71
ATOM     71  CB  SER     7     -13.298 -18.337   1.924  1.00  0.00     0.216 C 
ATOM     72  OG  SER     7     -14.664 -18.613   2.234  1.00  0.00    -0.218 OA
ENDBRANCH  49  71
ENDBRANCH  47  49
ENDBRANCH  42  46
ENDBRANCH   1  39
TORSDOF 33
ENDMDL
MODEL 6
REMARK VINA RESULT:      -4.5      4.219     13.746
REMARK WARNING: 32 MAX_TORS EXCEEDED!!!
REMARK  33 active torsions:
REMARK  status: ('A' for Active; 'I' for Inactive)
REMARK    1  A    between atoms: CA_2  and  C_8 
REMARK    2  A    between atoms: CA_2  and  CB_3 
REMARK    3  A    between atoms: CB_3  and  CG_4 
REMARK    4  A    between atoms: CG_4  and  CD_5 
REMARK       I    between atoms: C_8  and  N_10 
REMARK    5  A    between atoms: N_10  and  CA_11 
REMARK    6  A    between atoms: CA_11  and  C_12 
REMARK       I    between atoms: C_12  and  N_14 
REMARK    7  A    between atoms: N_14  and  CA_15 
REMARK    8  A    between atoms: CA_15  and  C_20 
REMARK    9  A    between atoms: CA_15  and  CB_16 
REMARK   10  A    between atoms: CB_16  and  CG_17 
REMARK       I    between atoms: C_20  and  N_22 
REMARK   11  A    between atoms: N_22  and  CA_23 
REMARK   12  A    between atoms: CA_23  and  CB_24 
REMARK   13  A    between atoms: CA_23  and  C_28 
REMARK   14  A    between atoms: CB_24  and  CG_25 
REMARK       I    between atoms: C_28  and  N_30 
REMARK   15  A    between atoms: N_30  and  CA_31 
REMARK   16  A    between atoms: CA_31  and  CB_32 
REMARK   17  A    between atoms: CA_31  and  C_39 
REMARK   18  A    between atoms: CB_32  and  CG_33 
REMARK   19  A    between atoms: CG_33  and  CD_34 
REMARK   20  A    between atoms: CD_34  and  NE_35 
REMARK       I    between atoms: C_39  and  N_41 
REMARK   21  A    between atoms: CA_42  and  C_46 
REMARK       I    between atoms: C_46  and  N_48 
REMARK   22  A    between atoms: N_48  and  CA_49 
REMARK   23  A    between atoms: CA_49  and  C_52 
REMARK   24  A    between atoms: CA_49  and  CB_50 
REMARK       I    between atoms: C_52  and  N_54 
REMARK   25  A    between atoms: N_54  and  CA_55 
REMARK   26  A    between atoms: CA_55  and  C_56 
REMARK       I    between atoms: C_56  and  N_58 
REMARK   27  A    between atoms: N_58  and  CA_59 
REMARK   28  A    between atoms: CA_59  and  C_60 
REMARK       I    between atoms: C_60  and  N_62 
REMARK   29  A    between atoms: N_62  and  CA_63 
REMARK   30  A    between atoms: CA_63  and  CB_64 
REMARK   31  A    between atoms: CA_63  and  C_66 
REMARK       I    between atoms: C_66  and  N_68 
REMARK   32  A    between atoms: N_68  and  CA_69 
REMARK   33  A    between atoms: CA_69  and  C_70 
ROOT
ATOM      1  CA  ARG     5      -9.206  -9.982   7.544  1.00  0.00     0.185 C 
ENDROOT
BRANCH   1   2
ATOM      2  N   ARG     5      -8.447  -8.727   7.386  1.00  0.00    -0.229 NA
ATOM      3  C   ASN     4      -7.726  -8.138   8.327  1.00  0.00     0.275 C 
ATOM      4  O   ASN     4      -7.792  -8.414   9.521  1.00  0.00    -0.268 OA
BRANCH   3   5
ATOM      5  CA  ASN     4      -7.046  -6.845   7.833  1.00  0.00     0.196 C 
BRANCH   5   6
ATOM      6  N   ASN     4      -8.022  -5.968   7.154  1.00  0.00    -0.228 NA
ATOM      7  C   LEU     3      -7.872  -5.542   5.902  1.00  0.00     0.274 C 
ATOM      8  O   LEU     3      -6.922  -5.827   5.167  1.00  0.00    -0.268 OA
BRANCH   7   9
ATOM      9  CA  LEU     3      -9.022  -4.688   5.369  1.00  0.00     0.186 C 
BRANCH   9  10
ATOM     10  N   LEU     3      -9.713  -5.412   4.278  1.00  0.00    -0.229 NA
ATOM     11  C   GLY     2     -10.441  -4.792   3.345  1.00  0.00     0.277 C 
ATOM     12  O   GLY     2     -10.473  -3.577   3.217  1.00  0.00    -0.268 OA
BRANCH  11  13
ATOM     13  CA  GLY     2     -11.122  -5.705   2.303  1.00  0.00     0.218 C 
BRANCH  13  14
ATOM     14  N   GLY     2     -11.869  -6.888   2.793  1.00  0.00    -0.226 NA
ATOM     15  C   GLU     1     -13.165  -6.824   3.120  1.00  0.00     0.289 C 
ATOM     16  O   GLU     1     -13.829  -5.832   2.871  1.00  0.00    -0.268 OA
BRANCH  15  17
ATOM     17  CA  GLU     1     -13.839  -8.074   3.746  1.00  0.00     0.381 C 
ATOM     18  N   GLU     1     -13.511  -9.333   3.053  1.00  0.00     0.626 N 
BRANCH  17  19
ATOM     19  CB  GLU     1     -13.458  -8.142   5.239  1.00  0.00     0.060 C 
BRANCH  19  20
ATOM     20  CG  GLU     1     -14.562  -8.328   6.291  1.00  0.00     0.100 C 
BRANCH  20  21
ATOM     21  CD  GLU     1     -15.721  -9.202   5.789  1.00  0.00     0.185 C 
ATOM     22  OE1 GLU     1     -15.563 -10.436   5.762  1.00  0.00    -0.647 OA
ATOM     23  OE2 GLU     1     -16.760  -8.641   5.399  1.00  0.00    -0.647 OA
ENDBRANCH  20  21
ENDBRANCH  19  20
ENDBRANCH  17  19
ENDBRANCH  15  17
ENDBRANCH  13  14
ENDBRANCH  11  13
ENDBRANCH   9  10
BRANCH   9  24
ATOM     24  CB  LEU     3      -9.994  -4.397   6.520  1.00  0.00     0.034 C 
BRANCH  24  25
ATOM     25  CG  LEU     3     -10.005  -2.924   6.967  1.00  0.00     0.002 C 
ATOM     26  CD1 LEU     3      -9.461  -2.820   8.390  1.00  0.00     0.000 C 
ATOM     27  CD2 LEU     3      -9.172  -2.051   6.021  1.00  0.00     0.000 C 
ENDBRANCH  24  25
ENDBRANCH   9  24
ENDBRANCH   7   9
ENDBRANCH   5   6
BRANCH   5  28
ATOM     28  CB  ASN     4      -6.366  -6.089   8.988  1.00  0.00     0.126 C 
BRANCH  28  29
ATOM     29  CG  ASN     4      -4.854  -6.362   9.103  1.00  0.00     0.276 C 
ATOM     30  ND2 ASN     4      -4.377  -7.310   8.341  1.00  0.00    -0.107 N 
ATOM     31  OD1 ASN     4      -4.098  -5.712   9.799  1.00  0.00    -0.269 OA
ENDBRANCH  28  29
ENDBRANCH   5  28
ENDBRANCH   3   5
ENDBRANCH   1   2
BRANCH   1  32
ATOM     32  CB  ARG     5     -10.634  -9.817   7.014  1.00  0.00     0.036 C 
BRANCH  32  33
ATOM     33  CG  ARG     5     -11.501 -11.067   7.172  1.00  0.00     0.029 C 
BRANCH  33  34
ATOM     34  CD  ARG     5     -12.064 -11.469   5.812  1.00  0.00     0.145 C 
BRANCH  34  35
ATOM     35  NE  ARG     5     -11.458 -12.726   5.310  1.00  0.00    -0.083 NA
ATOM     36  CZ  ARG     5     -11.859 -13.383   4.212  1.00  0.00     0.782 C 
ATOM     37  NH2 ARG     5     -11.116 -14.369   3.683  1.00  0.00     0.063 N 
ATOM     38  NH1 ARG     5     -12.935 -13.005   3.536  1.00  0.00     0.063 N 
ENDBRANCH  34  35
ENDBRANCH  33  34
ENDBRANCH  32  33
ENDBRANCH   1  32
BRANCH   1  39
ATOM     39  C   ARG     5      -8.498 -11.112   6.774  1.00  0.00     0.256 C 
ATOM     40  O   ARG     5      -8.461 -11.084   5.540  1.00  0.00    -0.270 OA
ATOM     41  N   PRO     6      -7.856 -12.035   7.497  1.00  0.00    -0.312 N 
ATOM     42  CA  PRO     6      -7.155 -13.204   6.920  1.00  0.00     0.165 C 
ATOM     43  CD  PRO     6      -7.603 -11.962   8.953  1.00  0.00     0.105 C 
ATOM     44  CB  PRO     6      -6.676 -14.010   8.128  1.00  0.00     0.034 C 
ATOM     45  CG  PRO     6      -6.449 -12.938   9.184  1.00  0.00     0.027 C 
BRANCH  42  46
ATOM     46  C   PRO     6      -8.096 -14.044   6.039  1.00  0.00     0.272 C 
ATOM     47  N   SER     7      -8.982 -14.846   6.613  1.00  0.00    -0.226 NA
ATOM     48  O   PRO     6      -7.952 -14.050   4.813  1.00  0.00    -0.269 OA
BRANCH  47  49
ATOM     49  CA  SER     7      -9.183 -15.050   8.068  1.00  0.00     0.219 C 
BRANCH  49  50
ATOM     50  C   SER     7      -9.018 -16.526   8.471  1.00  0.00     0.277 C 
ATOM     51  O   SER     7      -9.424 -16.898   9.567  1.00  0.00    -0.268 OA
ATOM     52  N   GLY     8      -8.656 -17.352   7.499  1.00  0.00    -0.226 NA
BRANCH  52  53
ATOM     53  CA  GLY     8      -8.254 -18.758   7.769  1.00  0.00     0.218 C 
BRANCH  53  54
ATOM     54  C   GLY     8      -6.772 -19.045   8.070  1.00  0.00     0.277 C 
ATOM     55  N   GLY     9      -6.094 -19.771   7.169  1.00  0.00    -0.226 NA
ATOM     56  O   GLY     8      -6.248 -18.582   9.070  1.00  0.00    -0.268 OA
BRANCH  55  57
ATOM     57  CA  GLY     9      -4.679 -20.156   7.345  1.00  0.00     0.218 C 
BRANCH  57  58
ATOM     58  C   GLY     9      -3.739 -19.245   6.520  1.00  0.00     0.277 C 
ATOM     59  O   GLY     9      -4.191 -18.618   5.572  1.00  0.00    -0.268 OA
ATOM     60  N   CYS    10      -2.426 -19.249   6.702  1.00  0.00    -0.228 NA
BRANCH  60  61
ATOM     61  CA  CYS    10      -1.637 -20.092   7.634  1.00  0.00     0.198 C 
BRANCH  61  62
ATOM     62  CB  CYS    10      -0.801 -21.149   6.902  1.00  0.00     0.103 C 
ATOM     63  SG  CYS    10      -1.158 -22.906   7.241  1.00  0.00    -0.080 SA
ENDBRANCH  61  62
BRANCH  61  64
ATOM     64  C   CYS    10      -0.619 -19.313   8.470  1.00  0.00     0.275 C 
ATOM     65  O   CYS    10       0.319 -19.916   8.990  1.00  0.00    -0.268 OA
ATOM     66  N   GLY    11      -0.672 -18.003   8.294  1.00  0.00    -0.225 NA
BRANCH  66  67
ATOM     67  CA  GLY    11      -0.369 -17.068   9.387  1.00  0.00     0.226 C 
BRANCH  67  68
ATOM     68  C   GLY    11       0.363 -15.898   8.711  1.00  0.00     0.211 C 
ATOM     69  O2  GLY    11      -0.346 -14.907   8.433  1.00  0.00    -0.646 OA
ATOM     70  O1  GLY    11       1.609 -15.878   8.838  1.00  0.00    -0.646 OA
ENDBRANCH  67  68
ENDBRANCH  66  67
ENDBRANCH  61  64
ENDBRANCH  60  61
ENDBRANCH  57  58
ENDBRANCH  55  57
ENDBRANCH  53  54
ENDBRANCH  52  53
ENDBRANCH  49  50
BRANCH  49  71
ATOM     71  CB  SER     7     -10.578 -14.608   8.514  1.00  0.00     0.216 C 
ATOM     72  OG  SER     7     -11.560 -15.113   7.608  1.00  0.00    -0.218 OA
ENDBRANCH  49  71
ENDBRANCH  47  49
ENDBRANCH  42  46
ENDBRANCH   1  39
TORSDOF 33
ENDMDL
MODEL 7
REMARK VINA RESULT:      -4.4      7.105     12.910
REMARK WARNING: 32 MAX_TORS EXCEEDED!!!
REMARK  33 active torsions:
REMARK  status: ('A' for Active; 'I' for Inactive)
REMARK    1  A    between atoms: CA_2  and  C_8 
REMARK    2  A    between atoms: CA_2  and  CB_3 
REMARK    3  A    between atoms: CB_3  and  CG_4 
REMARK    4  A    between atoms: CG_4  and  CD_5 
REMARK       I    between atoms: C_8  and  N_10 
REMARK    5  A    between atoms: N_10  and  CA_11 
REMARK    6  A    between atoms: CA_11  and  C_12 
REMARK       I    between atoms: C_12  and  N_14 
REMARK    7  A    between atoms: N_14  and  CA_15 
REMARK    8  A    between atoms: CA_15  and  C_20 
REMARK    9  A    between atoms: CA_15  and  CB_16 
REMARK   10  A    between atoms: CB_16  and  CG_17 
REMARK       I    between atoms: C_20  and  N_22 
REMARK   11  A    between atoms: N_22  and  CA_23 
REMARK   12  A    between atoms: CA_23  and  CB_24 
REMARK   13  A    between atoms: CA_23  and  C_28 
REMARK   14  A    between atoms: CB_24  and  CG_25 
REMARK       I    between atoms: C_28  and  N_30 
REMARK   15  A    between atoms: N_30  and  CA_31 
REMARK   16  A    between atoms: CA_31  and  CB_32 
REMARK   17  A    between atoms: CA_31  and  C_39 
REMARK   18  A    between atoms: CB_32  and  CG_33 
REMARK   19  A    between atoms: CG_33  and  CD_34 
REMARK   20  A    between atoms: CD_34  and  NE_35 
REMARK       I    between atoms: C_39  and  N_41 
REMARK   21  A    between atoms: CA_42  and  C_46 
REMARK       I    between atoms: C_46  and  N_48 
REMARK   22  A    between atoms: N_48  and  CA_49 
REMARK   23  A    between atoms: CA_49  and  C_52 
REMARK   24  A    between atoms: CA_49  and  CB_50 
REMARK       I    between atoms: C_52  and  N_54 
REMARK   25  A    between atoms: N_54  and  CA_55 
REMARK   26  A    between atoms: CA_55  and  C_56 
REMARK       I    between atoms: C_56  and  N_58 
REMARK   27  A    between atoms: N_58  and  CA_59 
REMARK   28  A    between atoms: CA_59  and  C_60 
REMARK       I    between atoms: C_60  and  N_62 
REMARK   29  A    between atoms: N_62  and  CA_63 
REMARK   30  A    between atoms: CA_63  and  CB_64 
REMARK   31  A    between atoms: CA_63  and  C_66 
REMARK       I    between atoms: C_66  and  N_68 
REMARK   32  A    between atoms: N_68  and  CA_69 
REMARK   33  A    between atoms: CA_69  and  C_70 
ROOT
ATOM      1  CA  ARG     5      -4.713 -20.416   6.568  1.00  0.00     0.185 C 
ENDROOT
BRANCH   1   2
ATOM      2  N   ARG     5      -3.679 -21.220   5.891  1.00  0.00    -0.229 NA
ATOM      3  C   ASN     4      -3.273 -22.425   6.262  1.00  0.00     0.275 C 
ATOM      4  O   ASN     4      -3.516 -22.929   7.354  1.00  0.00    -0.268 OA
BRANCH   3   5
ATOM      5  CA  ASN     4      -2.185 -22.999   5.331  1.00  0.00     0.196 C 
BRANCH   5   6
ATOM      6  N   ASN     4      -1.110 -23.639   6.118  1.00  0.00    -0.228 NA
ATOM      7  C   LEU     3      -0.045 -22.980   6.568  1.00  0.00     0.274 C 
ATOM      8  O   LEU     3       0.166 -21.776   6.396  1.00  0.00    -0.268 OA
BRANCH   7   9
ATOM      9  CA  LEU     3       0.922 -23.815   7.407  1.00  0.00     0.186 C 
BRANCH   9  10
ATOM     10  N   LEU     3       1.463 -24.921   6.585  1.00  0.00    -0.229 NA
ATOM     11  C   GLY     2       1.576 -26.173   7.038  1.00  0.00     0.277 C 
ATOM     12  O   GLY     2       1.105 -26.545   8.103  1.00  0.00    -0.268 OA
BRANCH  11  13
ATOM     13  CA  GLY     2       2.195 -27.193   6.060  1.00  0.00     0.218 C 
BRANCH  13  14
ATOM     14  N   GLY     2       2.145 -28.630   6.424  1.00  0.00    -0.226 NA
ATOM     15  C   GLU     1       1.132 -29.421   6.053  1.00  0.00     0.289 C 
ATOM     16  O   GLU     1       0.290 -29.036   5.259  1.00  0.00    -0.268 OA
BRANCH  15  17
ATOM     17  CA  GLU     1       1.091 -30.879   6.583  1.00  0.00     0.381 C 
ATOM     18  N   GLU     1      -0.271 -31.374   6.848  1.00  0.00     0.626 N 
BRANCH  17  19
ATOM     19  CB  GLU     1       1.833 -31.787   5.581  1.00  0.00     0.060 C 
BRANCH  19  20
ATOM     20  CG  GLU     1       1.044 -32.461   4.448  1.00  0.00     0.100 C 
BRANCH  20  21
ATOM     21  CD  GLU     1       1.243 -31.770   3.091  1.00  0.00     0.185 C 
ATOM     22  OE1 GLU     1       2.150 -30.925   2.985  1.00  0.00    -0.647 OA
ATOM     23  OE2 GLU     1       0.470 -32.059   2.161  1.00  0.00    -0.647 OA
ENDBRANCH  20  21
ENDBRANCH  19  20
ENDBRANCH  17  19
ENDBRANCH  15  17
ENDBRANCH  13  14
ENDBRANCH  11  13
ENDBRANCH   9  10
BRANCH   9  24
ATOM     24  CB  LEU     3       2.057 -22.908   7.899  1.00  0.00     0.034 C 
BRANCH  24  25
ATOM     25  CG  LEU     3       2.051 -22.676   9.421  1.00  0.00     0.002 C 
ATOM     26  CD1 LEU     3       1.650 -21.232   9.714  1.00  0.00     0.000 C 
ATOM     27  CD2 LEU     3       1.090 -23.640  10.125  1.00  0.00     0.000 C 
ENDBRANCH  24  25
ENDBRANCH   9  24
ENDBRANCH   7   9
ENDBRANCH   5   6
BRANCH   5  28
ATOM     28  CB  ASN     4      -2.776 -24.001   4.325  1.00  0.00     0.126 C 
BRANCH  28  29
ATOM     29  CG  ASN     4      -2.825 -23.471   2.879  1.00  0.00     0.276 C 
ATOM     30  ND2 ASN     4      -3.802 -22.652   2.594  1.00  0.00    -0.107 N 
ATOM     31  OD1 ASN     4      -1.985 -23.721   2.035  1.00  0.00    -0.269 OA
ENDBRANCH  28  29
ENDBRANCH   5  28
ENDBRANCH   3   5
ENDBRANCH   1   2
BRANCH   1  32
ATOM     32  CB  ARG     5      -4.501 -18.924   6.290  1.00  0.00     0.036 C 
BRANCH  32  33
ATOM     33  CG  ARG     5      -5.502 -18.013   7.001  1.00  0.00     0.029 C 
BRANCH  33  34
ATOM     34  CD  ARG     5      -5.228 -18.031   8.501  1.00  0.00     0.145 C 
BRANCH  34  35
ATOM     35  NE  ARG     5      -3.927 -17.402   8.835  1.00  0.00    -0.083 NA
ATOM     36  CZ  ARG     5      -2.926 -18.014   9.484  1.00  0.00     0.782 C 
ATOM     37  NH2 ARG     5      -1.698 -17.472   9.534  1.00  0.00     0.063 N 
ATOM     38  NH1 ARG     5      -3.073 -19.230   9.991  1.00  0.00     0.063 N 
ENDBRANCH  34  35
ENDBRANCH  33  34
ENDBRANCH  32  33
ENDBRANCH   1  32
BRANCH   1  39
ATOM     39  C   ARG     5      -6.106 -20.841   6.067  1.00  0.00     0.256 C 
ATOM     40  O   ARG     5      -6.311 -20.959   4.855  1.00  0.00    -0.270 OA
ATOM     41  N   PRO     6      -7.015 -21.165   6.991  1.00  0.00    -0.312 N 
ATOM     42  CA  PRO     6      -8.408 -21.561   6.685  1.00  0.00     0.165 C 
ATOM     43  CD  PRO     6      -6.745 -21.339   8.435  1.00  0.00     0.105 C 
ATOM     44  CB  PRO     6      -9.076 -21.733   8.050  1.00  0.00     0.034 C 
ATOM     45  CG  PRO     6      -7.924 -22.173   8.941  1.00  0.00     0.027 C 
BRANCH  42  46
ATOM     46  C   PRO     6      -9.126 -20.486   5.853  1.00  0.00     0.272 C 
ATOM     47  N   SER     7      -9.731 -20.832   4.724  1.00  0.00    -0.226 NA
ATOM     48  O   PRO     6      -9.048 -19.298   6.179  1.00  0.00    -0.269 OA
BRANCH  47  49
ATOM     49  CA  SER     7      -9.795 -22.190   4.132  1.00  0.00     0.219 C 
BRANCH  49  50
ATOM     50  C   SER     7      -8.716 -22.400   3.055  1.00  0.00     0.277 C 
ATOM     51  O   SER     7      -8.446 -21.481   2.289  1.00  0.00    -0.268 OA
ATOM     52  N   GLY     8      -7.980 -23.495   3.182  1.00  0.00    -0.226 NA
BRANCH  52  53
ATOM     53  CA  GLY     8      -7.047 -23.945   2.115  1.00  0.00     0.218 C 
BRANCH  53  54
ATOM     54  C   GLY     8      -6.660 -25.434   2.068  1.00  0.00     0.277 C 
ATOM     55  N   GLY     9      -5.598 -25.814   2.793  1.00  0.00    -0.226 NA
ATOM     56  O   GLY     8      -7.334 -26.223   1.426  1.00  0.00    -0.268 OA
BRANCH  55  57
ATOM     57  CA  GLY     9      -5.089 -27.200   2.813  1.00  0.00     0.218 C 
BRANCH  57  58
ATOM     58  C   GLY     9      -3.575 -27.243   3.130  1.00  0.00     0.277 C 
ATOM     59  O   GLY     9      -2.769 -27.020   2.236  1.00  0.00    -0.268 OA
ATOM     60  N   CYS    10      -3.117 -27.677   4.295  1.00  0.00    -0.228 NA
BRANCH  60  61
ATOM     61  CA  CYS    10      -3.896 -28.210   5.440  1.00  0.00     0.198 C 
BRANCH  61  62
ATOM     62  CB  CYS    10      -3.063 -29.135   6.334  1.00  0.00     0.103 C 
ATOM     63  SG  CYS    10      -3.891 -29.925   7.756  1.00  0.00    -0.080 SA
ENDBRANCH  61  62
BRANCH  61  64
ATOM     64  C   CYS    10      -4.423 -27.134   6.392  1.00  0.00     0.275 C 
ATOM     65  O   CYS    10      -3.630 -26.352   6.913  1.00  0.00    -0.268 OA
ATOM     66  N   GLY    11      -5.731 -26.949   6.319  1.00  0.00    -0.225 NA
BRANCH  66  67
ATOM     67  CA  GLY    11      -6.520 -26.567   7.498  1.00  0.00     0.226 C 
BRANCH  67  68
ATOM     68  C   GLY    11      -7.211 -25.253   7.100  1.00  0.00     0.211 C 
ATOM     69  O2  GLY    11      -6.483 -24.414   6.527  1.00  0.00    -0.646 OA
ATOM     70  O1  GLY    11      -8.461 -25.282   7.035  1.00  0.00    -0.646 OA
ENDBRANCH  67  68
ENDBRANCH  66  67
ENDBRANCH  61  64
ENDBRANCH  60  61
ENDBRANCH  57  58
ENDBRANCH  55  57
ENDBRANCH  53  54
ENDBRANCH  52  53
ENDBRANCH  49  50
BRANCH  49  71
ATOM     71  CB  SER     7     -11.152 -22.457   3.477  1.00  0.00     0.216 C 
ATOM     72  OG  SER     7     -11.483 -23.842   3.591  1.00  0.00    -0.218 OA
ENDBRANCH  49  71
ENDBRANCH  47  49
ENDBRANCH  42  46
ENDBRANCH   1  39
TORSDOF 33
ENDMDL
MODEL 8
REMARK VINA RESULT:      -4.3      3.570      8.819
REMARK WARNING: 32 MAX_TORS EXCEEDED!!!
REMARK  33 active torsions:
REMARK  status: ('A' for Active; 'I' for Inactive)
REMARK    1  A    between atoms: CA_2  and  C_8 
REMARK    2  A    between atoms: CA_2  and  CB_3 
REMARK    3  A    between atoms: CB_3  and  CG_4 
REMARK    4  A    between atoms: CG_4  and  CD_5 
REMARK       I    between atoms: C_8  and  N_10 
REMARK    5  A    between atoms: N_10  and  CA_11 
REMARK    6  A    between atoms: CA_11  and  C_12 
REMARK       I    between atoms: C_12  and  N_14 
REMARK    7  A    between atoms: N_14  and  CA_15 
REMARK    8  A    between atoms: CA_15  and  C_20 
REMARK    9  A    between atoms: CA_15  and  CB_16 
REMARK   10  A    between atoms: CB_16  and  CG_17 
REMARK       I    between atoms: C_20  and  N_22 
REMARK   11  A    between atoms: N_22  and  CA_23 
REMARK   12  A    between atoms: CA_23  and  CB_24 
REMARK   13  A    between atoms: CA_23  and  C_28 
REMARK   14  A    between atoms: CB_24  and  CG_25 
REMARK       I    between atoms: C_28  and  N_30 
REMARK   15  A    between atoms: N_30  and  CA_31 
REMARK   16  A    between atoms: CA_31  and  CB_32 
REMARK   17  A    between atoms: CA_31  and  C_39 
REMARK   18  A    between atoms: CB_32  and  CG_33 
REMARK   19  A    between atoms: CG_33  and  CD_34 
REMARK   20  A    between atoms: CD_34  and  NE_35 
REMARK       I    between atoms: C_39  and  N_41 
REMARK   21  A    between atoms: CA_42  and  C_46 
REMARK       I    between atoms: C_46  and  N_48 
REMARK   22  A    between atoms: N_48  and  CA_49 
REMARK   23  A    between atoms: CA_49  and  C_52 
REMARK   24  A    between atoms: CA_49  and  CB_50 
REMARK       I    between atoms: C_52  and  N_54 
REMARK   25  A    between atoms: N_54  and  CA_55 
REMARK   26  A    between atoms: CA_55  and  C_56 
REMARK       I    between atoms: C_56  and  N_58 
REMARK   27  A    between atoms: N_58  and  CA_59 
REMARK   28  A    between atoms: CA_59  and  C_60 
REMARK       I    between atoms: C_60  and  N_62 
REMARK   29  A    between atoms: N_62  and  CA_63 
REMARK   30  A    between atoms: CA_63  and  CB_64 
REMARK   31  A    between atoms: CA_63  and  C_66 
REMARK       I    between atoms: C_66  and  N_68 
REMARK   32  A    between atoms: N_68  and  CA_69 
REMARK   33  A    between atoms: CA_69  and  C_70 
ROOT
ATOM      1  CA  ARG     5      -1.058 -21.650   8.573  1.00  0.00     0.185 C 
ENDROOT
BRANCH   1   2
ATOM      2  N   ARG     5      -0.703 -23.033   8.206  1.00  0.00    -0.229 NA
ATOM      3  C   ASN     4       0.338 -23.393   7.472  1.00  0.00     0.275 C 
ATOM      4  O   ASN     4       1.002 -22.619   6.790  1.00  0.00    -0.268 OA
BRANCH   3   5
ATOM      5  CA  ASN     4       0.434 -24.921   7.283  1.00  0.00     0.196 C 
BRANCH   5   6
ATOM      6  N   ASN     4      -0.717 -25.424   6.504  1.00  0.00    -0.228 NA
ATOM      7  C   LEU     3      -1.528 -26.386   6.939  1.00  0.00     0.274 C 
ATOM      8  O   LEU     3      -1.425 -26.959   8.028  1.00  0.00    -0.268 OA
BRANCH   7   9
ATOM      9  CA  LEU     3      -2.689 -26.722   6.004  1.00  0.00     0.186 C 
BRANCH   9  10
ATOM     10  N   LEU     3      -3.786 -25.749   6.207  1.00  0.00    -0.229 NA
ATOM     11  C   GLY     2      -5.048 -26.118   6.444  1.00  0.00     0.277 C 
ATOM     12  O   GLY     2      -5.377 -27.274   6.667  1.00  0.00    -0.268 OA
BRANCH  11  13
ATOM     13  CA  GLY     2      -6.071 -24.973   6.593  1.00  0.00     0.218 C 
BRANCH  13  14
ATOM     14  N   GLY     2      -5.887 -23.758   5.763  1.00  0.00    -0.226 NA
ATOM     15  C   GLU     1      -6.666 -23.495   4.707  1.00  0.00     0.289 C 
ATOM     16  O   GLU     1      -7.666 -24.156   4.482  1.00  0.00    -0.268 OA
BRANCH  15  17
ATOM     17  CA  GLU     1      -6.325 -22.271   3.815  1.00  0.00     0.381 C 
ATOM     18  N   GLU     1      -6.804 -20.989   4.362  1.00  0.00     0.626 N 
BRANCH  17  19
ATOM     19  CB  GLU     1      -4.801 -22.245   3.578  1.00  0.00     0.060 C 
BRANCH  19  20
ATOM     20  CG  GLU     1      -4.180 -23.219   2.565  1.00  0.00     0.100 C 
BRANCH  20  21
ATOM     21  CD  GLU     1      -2.686 -23.469   2.820  1.00  0.00     0.185 C 
ATOM     22  OE1 GLU     1      -2.217 -23.169   3.933  1.00  0.00    -0.647 OA
ATOM     23  OE2 GLU     1      -1.997 -23.932   1.894  1.00  0.00    -0.647 OA
ENDBRANCH  20  21
ENDBRANCH  19  20
ENDBRANCH  17  19
ENDBRANCH  15  17
ENDBRANCH  13  14
ENDBRANCH  11  13
ENDBRANCH   9  10
BRANCH   9  24
ATOM     24  CB  LEU     3      -2.187 -26.671   4.556  1.00  0.00     0.034 C 
BRANCH  24  25
ATOM     25  CG  LEU     3      -2.851 -27.706   3.631  1.00  0.00     0.002 C 
ATOM     26  CD1 LEU     3      -3.968 -27.034   2.834  1.00  0.00     0.000 C 
ATOM     27  CD2 LEU     3      -1.830 -28.333   2.675  1.00  0.00     0.000 C 
ENDBRANCH  24  25
ENDBRANCH   9  24
ENDBRANCH   7   9
ENDBRANCH   5   6
BRANCH   5  28
ATOM     28  CB  ASN     4       1.753 -25.324   6.603  1.00  0.00     0.126 C 
BRANCH  28  29
ATOM     29  CG  ASN     4       2.599 -26.313   7.428  1.00  0.00     0.276 C 
ATOM     30  ND2 ASN     4       2.138 -27.531   7.526  1.00  0.00    -0.107 N 
ATOM     31  OD1 ASN     4       3.676 -26.036   7.922  1.00  0.00    -0.269 OA
ENDBRANCH  28  29
ENDBRANCH   5  28
ENDBRANCH   3   5
ENDBRANCH   1   2
BRANCH   1  32
ATOM     32  CB  ARG     5       0.195 -20.768   8.623  1.00  0.00     0.036 C 
BRANCH  32  33
ATOM     33  CG  ARG     5      -0.020 -19.427   9.325  1.00  0.00     0.029 C 
BRANCH  33  34
ATOM     34  CD  ARG     5       1.332 -18.823   9.691  1.00  0.00     0.145 C 
BRANCH  34  35
ATOM     35  NE  ARG     5       2.140 -18.502   8.489  1.00  0.00    -0.083 NA
ATOM     36  CZ  ARG     5       2.649 -17.292   8.211  1.00  0.00     0.782 C 
ATOM     37  NH2 ARG     5       3.567 -17.132   7.244  1.00  0.00     0.063 N 
ATOM     38  NH1 ARG     5       2.363 -16.235   8.958  1.00  0.00     0.063 N 
ENDBRANCH  34  35
ENDBRANCH  33  34
ENDBRANCH  32  33
ENDBRANCH   1  32
BRANCH   1  39
ATOM     39  C   ARG     5      -2.049 -21.081   7.540  1.00  0.00     0.256 C 
ATOM     40  O   ARG     5      -1.645 -20.751   6.421  1.00  0.00    -0.270 OA
ATOM     41  N   PRO     6      -3.342 -21.065   7.878  1.00  0.00    -0.312 N 
ATOM     42  CA  PRO     6      -4.418 -20.523   7.019  1.00  0.00     0.165 C 
ATOM     43  CD  PRO     6      -3.925 -21.720   9.069  1.00  0.00     0.105 C 
ATOM     44  CB  PRO     6      -5.687 -20.633   7.866  1.00  0.00     0.034 C 
ATOM     45  CG  PRO     6      -5.412 -21.851   8.736  1.00  0.00     0.027 C 
BRANCH  42  46
ATOM     46  C   PRO     6      -4.143 -19.061   6.630  1.00  0.00     0.272 C 
ATOM     47  N   SER     7      -4.263 -18.110   7.546  1.00  0.00    -0.226 NA
ATOM     48  O   PRO     6      -3.919 -18.767   5.452  1.00  0.00    -0.269 OA
BRANCH  47  49
ATOM     49  CA  SER     7      -4.656 -18.289   8.965  1.00  0.00     0.219 C 
BRANCH  49  50
ATOM     50  C   SER     7      -5.817 -17.360   9.362  1.00  0.00     0.277 C 
ATOM     51  O   SER     7      -6.602 -17.719  10.234  1.00  0.00    -0.268 OA
ATOM     52  N   GLY     8      -5.752 -16.122   8.892  1.00  0.00    -0.226 NA
BRANCH  52  53
ATOM     53  CA  GLY     8      -6.892 -15.174   9.010  1.00  0.00     0.218 C 
BRANCH  53  54
ATOM     54  C   GLY     8      -7.422 -14.513   7.725  1.00  0.00     0.277 C 
ATOM     55  N   GLY     9      -7.569 -13.180   7.739  1.00  0.00    -0.226 NA
ATOM     56  O   GLY     8      -7.651 -15.190   6.736  1.00  0.00    -0.268 OA
BRANCH  55  57
ATOM     57  CA  GLY     9      -8.104 -12.417   6.593  1.00  0.00     0.218 C 
BRANCH  57  58
ATOM     58  C   GLY     9      -7.286 -11.128   6.340  1.00  0.00     0.277 C 
ATOM     59  O   GLY     9      -6.082 -11.212   6.136  1.00  0.00    -0.268 OA
ATOM     60  N   CYS    10      -7.813  -9.922   6.501  1.00  0.00    -0.228 NA
BRANCH  60  61
ATOM     61  CA  CYS    10      -9.181  -9.579   6.961  1.00  0.00     0.198 C 
BRANCH  61  62
ATOM     62  CB  CYS    10      -9.270  -9.457   8.487  1.00  0.00     0.103 C 
ATOM     63  SG  CYS    10     -10.728 -10.175   9.319  1.00  0.00    -0.080 SA
ENDBRANCH  61  62
BRANCH  61  64
ATOM     64  C   CYS    10      -9.697  -8.237   6.440  1.00  0.00     0.275 C 
ATOM     65  O   CYS    10     -10.890  -7.964   6.561  1.00  0.00    -0.268 OA
ATOM     66  N   GLY    11      -8.741  -7.358   6.186  1.00  0.00    -0.225 NA
BRANCH  66  67
ATOM     67  CA  GLY    11      -8.867  -6.377   5.099  1.00  0.00     0.226 C 
BRANCH  67  68
ATOM     68  C   GLY    11      -9.011  -5.021   5.808  1.00  0.00     0.211 C 
ATOM     69  O2  GLY    11      -7.965  -4.342   5.888  1.00  0.00    -0.646 OA
ATOM     70  O1  GLY    11     -10.173  -4.565   5.898  1.00  0.00    -0.646 OA
ENDBRANCH  67  68
ENDBRANCH  66  67
ENDBRANCH  61  64
ENDBRANCH  60  61
ENDBRANCH  57  58
ENDBRANCH  55  57
ENDBRANCH  53  54
ENDBRANCH  52  53
ENDBRANCH  49  50
BRANCH  49  71
ATOM     71  CB  SER     7      -3.493 -17.996   9.916  1.00  0.00     0.216 C 
ATOM     72  OG  SER     7      -2.629 -17.016   9.340  1.00  0.00    -0.218 OA
ENDBRANCH  49  71
ENDBRANCH  47  49
ENDBRANCH  42  46
ENDBRANCH   1  39
TORSDOF 33
ENDMDL
MODEL 9
REMARK VINA RESULT:      -4.3     25.208     35.677
REMARK WARNING: 32 MAX_TORS EXCEEDED!!!
REMARK  33 active torsions:
REMARK  status: ('A' for Active; 'I' for Inactive)
REMARK    1  A    between atoms: CA_2  and  C_8 
REMARK    2  A    between atoms: CA_2  and  CB_3 
REMARK    3  A    between atoms: CB_3  and  CG_4 
REMARK    4  A    between atoms: CG_4  and  CD_5 
REMARK       I    between atoms: C_8  and  N_10 
REMARK    5  A    between atoms: N_10  and  CA_11 
REMARK    6  A    between atoms: CA_11  and  C_12 
REMARK       I    between atoms: C_12  and  N_14 
REMARK    7  A    between atoms: N_14  and  CA_15 
REMARK    8  A    between atoms: CA_15  and  C_20 
REMARK    9  A    between atoms: CA_15  and  CB_16 
REMARK   10  A    between atoms: CB_16  and  CG_17 
REMARK       I    between atoms: C_20  and  N_22 
REMARK   11  A    between atoms: N_22  and  CA_23 
REMARK   12  A    between atoms: CA_23  and  CB_24 
REMARK   13  A    between atoms: CA_23  and  C_28 
REMARK   14  A    between atoms: CB_24  and  CG_25 
REMARK       I    between atoms: C_28  and  N_30 
REMARK   15  A    between atoms: N_30  and  CA_31 
REMARK   16  A    between atoms: CA_31  and  CB_32 
REMARK   17  A    between atoms: CA_31  and  C_39 
REMARK   18  A    between atoms: CB_32  and  CG_33 
REMARK   19  A    between atoms: CG_33  and  CD_34 
REMARK   20  A    between atoms: CD_34  and  NE_35 
REMARK       I    between atoms: C_39  and  N_41 
REMARK   21  A    between atoms: CA_42  and  C_46 
REMARK       I    between atoms: C_46  and  N_48 
REMARK   22  A    between atoms: N_48  and  CA_49 
REMARK   23  A    between atoms: CA_49  and  C_52 
REMARK   24  A    between atoms: CA_49  and  CB_50 
REMARK       I    between atoms: C_52  and  N_54 
REMARK   25  A    between atoms: N_54  and  CA_55 
REMARK   26  A    between atoms: CA_55  and  C_56 
REMARK       I    between atoms: C_56  and  N_58 
REMARK   27  A    between atoms: N_58  and  CA_59 
REMARK   28  A    between atoms: CA_59  and  C_60 
REMARK       I    between atoms: C_60  and  N_62 
REMARK   29  A    between atoms: N_62  and  CA_63 
REMARK   30  A    between atoms: CA_63  and  CB_64 
REMARK   31  A    between atoms: CA_63  and  C_66 
REMARK       I    between atoms: C_66  and  N_68 
REMARK   32  A    between atoms: N_68  and  CA_69 
REMARK   33  A    between atoms: CA_69  and  C_70 
ROOT
ATOM      1  CA  ARG     5      10.925  14.084   5.124  1.00  0.00     0.185 C 
ENDROOT
BRANCH   1   2
ATOM      2  N   ARG     5       9.835  14.134   6.116  1.00  0.00    -0.229 NA
ATOM      3  C   ASN     4       8.562  14.380   5.852  1.00  0.00     0.275 C 
ATOM      4  O   ASN     4       8.155  14.847   4.793  1.00  0.00    -0.268 OA
BRANCH   3   5
ATOM      5  CA  ASN     4       7.674  14.346   7.113  1.00  0.00     0.196 C 
BRANCH   5   6
ATOM      6  N   ASN     4       6.518  15.254   6.963  1.00  0.00    -0.228 NA
ATOM      7  C   LEU     3       5.870  15.786   7.997  1.00  0.00     0.274 C 
ATOM      8  O   LEU     3       6.155  15.597   9.183  1.00  0.00    -0.268 OA
BRANCH   7   9
ATOM      9  CA  LEU     3       4.737  16.742   7.624  1.00  0.00     0.186 C 
BRANCH   9  10
ATOM     10  N   LEU     3       5.305  18.027   7.160  1.00  0.00    -0.229 NA
ATOM     11  C   GLY     2       4.631  19.179   7.213  1.00  0.00     0.277 C 
ATOM     12  O   GLY     2       3.559  19.302   7.787  1.00  0.00    -0.268 OA
BRANCH  11  13
ATOM     13  CA  GLY     2       5.362  20.417   6.651  1.00  0.00     0.218 C 
BRANCH  13  14
ATOM     14  N   GLY     2       6.409  20.204   5.623  1.00  0.00    -0.226 NA
ATOM     15  C   GLU     1       7.630  20.739   5.733  1.00  0.00     0.289 C 
ATOM     16  O   GLU     1       7.988  21.286   6.762  1.00  0.00    -0.268 OA
BRANCH  15  17
ATOM     17  CA  GLU     1       8.625  20.574   4.553  1.00  0.00     0.381 C 
ATOM     18  N   GLU     1       9.396  21.794   4.254  1.00  0.00     0.626 N 
BRANCH  17  19
ATOM     19  CB  GLU     1       9.557  19.384   4.859  1.00  0.00     0.060 C 
BRANCH  19  20
ATOM     20  CG  GLU     1       8.989  18.144   5.566  1.00  0.00     0.100 C 
BRANCH  20  21
ATOM     21  CD  GLU     1       9.441  18.033   7.029  1.00  0.00     0.185 C 
ATOM     22  OE1 GLU     1       8.569  17.966   7.914  1.00  0.00    -0.647 OA
ATOM     23  OE2 GLU     1      10.660  18.046   7.275  1.00  0.00    -0.647 OA
ENDBRANCH  20  21
ENDBRANCH  19  20
ENDBRANCH  17  19
ENDBRANCH  15  17
ENDBRANCH  13  14
ENDBRANCH  11  13
ENDBRANCH   9  10
BRANCH   9  24
ATOM     24  CB  LEU     3       3.892  16.097   6.518  1.00  0.00     0.034 C 
BRANCH  24  25
ATOM     25  CG  LEU     3       2.376  16.163   6.777  1.00  0.00     0.002 C 
ATOM     26  CD1 LEU     3       1.642  16.355   5.451  1.00  0.00     0.000 C 
ATOM     27  CD2 LEU     3       1.877  14.892   7.474  1.00  0.00     0.000 C 
ENDBRANCH  24  25
ENDBRANCH   9  24
ENDBRANCH   7   9
ENDBRANCH   5   6
BRANCH   5  28
ATOM     28  CB  ASN     4       7.192  12.919   7.424  1.00  0.00     0.126 C 
BRANCH  28  29
ATOM     29  CG  ASN     4       7.864  12.293   8.661  1.00  0.00     0.276 C 
ATOM     30  ND2 ASN     4       8.707  11.321   8.434  1.00  0.00    -0.107 N 
ATOM     31  OD1 ASN     4       7.701  12.694   9.798  1.00  0.00    -0.269 OA
ENDBRANCH  28  29
ENDBRANCH   5  28
ENDBRANCH   3   5
ENDBRANCH   1   2
BRANCH   1  32
ATOM     32  CB  ARG     5      11.955  15.185   5.402  1.00  0.00     0.036 C 
BRANCH  32  33
ATOM     33  CG  ARG     5      11.814  16.408   4.495  1.00  0.00     0.029 C 
BRANCH  33  34
ATOM     34  CD  ARG     5      13.151  17.139   4.417  1.00  0.00     0.145 C 
BRANCH  34  35
ATOM     35  NE  ARG     5      13.091  18.308   3.507  1.00  0.00    -0.083 NA
ATOM     36  CZ  ARG     5      13.402  18.278   2.202  1.00  0.00     0.782 C 
ATOM     37  NH2 ARG     5      13.092  19.304   1.392  1.00  0.00     0.063 N 
ATOM     38  NH1 ARG     5      13.909  17.192   1.638  1.00  0.00     0.063 N 
ENDBRANCH  34  35
ENDBRANCH  33  34
ENDBRANCH  32  33
ENDBRANCH   1  32
BRANCH   1  39
ATOM     39  C   ARG     5      11.613  12.708   5.183  1.00  0.00     0.256 C 
ATOM     40  O   ARG     5      11.175  11.835   5.939  1.00  0.00    -0.270 OA
ATOM     41  N   PRO     6      12.610  12.486   4.321  1.00  0.00    -0.312 N 
ATOM     42  CA  PRO     6      13.398  11.234   4.266  1.00  0.00     0.165 C 
ATOM     43  CD  PRO     6      12.981  13.368   3.192  1.00  0.00     0.105 C 
ATOM     44  CB  PRO     6      14.471  11.493   3.206  1.00  0.00     0.034 C 
ATOM     45  CG  PRO     6      13.784  12.464   2.256  1.00  0.00     0.027 C 
BRANCH  42  46
ATOM     46  C   PRO     6      14.038  10.914   5.627  1.00  0.00     0.272 C 
ATOM     47  N   SER     7      14.032   9.664   6.071  1.00  0.00    -0.226 NA
ATOM     48  O   PRO     6      14.455  11.828   6.344  1.00  0.00    -0.269 OA
BRANCH  47  49
ATOM     49  CA  SER     7      13.450   8.483   5.389  1.00  0.00     0.219 C 
BRANCH  49  50
ATOM     50  C   SER     7      13.233   7.308   6.359  1.00  0.00     0.277 C 
ATOM     51  O   SER     7      13.679   7.380   7.499  1.00  0.00    -0.268 OA
ATOM     52  N   GLY     8      12.365   6.386   5.963  1.00  0.00    -0.226 NA
BRANCH  52  53
ATOM     53  CA  GLY     8      12.204   5.096   6.684  1.00  0.00     0.218 C 
BRANCH  53  54
ATOM     54  C   GLY     8      12.776   3.824   6.032  1.00  0.00     0.277 C 
ATOM     55  N   GLY     9      14.077   3.834   5.708  1.00  0.00    -0.226 NA
ATOM     56  O   GLY     8      12.065   2.846   5.869  1.00  0.00    -0.268 OA
BRANCH  55  57
ATOM     57  CA  GLY     9      14.750   2.700   5.042  1.00  0.00     0.218 C 
BRANCH  57  58
ATOM     58  C   GLY     9      15.578   1.864   6.047  1.00  0.00     0.277 C 
ATOM     59  O   GLY     9      16.416   2.421   6.743  1.00  0.00    -0.268 OA
ATOM     60  N   CYS    10      15.527   0.540   6.063  1.00  0.00    -0.228 NA
BRANCH  60  61
ATOM     61  CA  CYS    10      14.757  -0.354   5.163  1.00  0.00     0.198 C 
BRANCH  61  62
ATOM     62  CB  CYS    10      15.435  -1.716   4.972  1.00  0.00     0.103 C 
ATOM     63  SG  CYS    10      16.665  -2.241   6.214  1.00  0.00    -0.080 SA
ENDBRANCH  61  62
BRANCH  61  64
ATOM     64  C   CYS    10      13.355  -0.695   5.672  1.00  0.00     0.275 C 
ATOM     65  O   CYS    10      13.162  -0.796   6.882  1.00  0.00    -0.268 OA
ATOM     66  N   GLY    11      12.404  -0.540   4.764  1.00  0.00    -0.225 NA
BRANCH  66  67
ATOM     67  CA  GLY    11      11.215  -1.404   4.741  1.00  0.00     0.226 C 
BRANCH  67  68
ATOM     68  C   GLY    11      10.025  -0.432   4.728  1.00  0.00     0.211 C 
ATOM     69  O2  GLY    11       9.336  -0.411   5.771  1.00  0.00    -0.646 OA
ATOM     70  O1  GLY    11      10.068   0.484   3.876  1.00  0.00    -0.646 OA
ENDBRANCH  67  68
ENDBRANCH  66  67
ENDBRANCH  61  64
ENDBRANCH  60  61
ENDBRANCH  57  58
ENDBRANCH  55  57
ENDBRANCH  53  54
ENDBRANCH  52  53
ENDBRANCH  49  50
BRANCH  49  71
ATOM     71  CB  SER     7      14.352   7.980   4.260  1.00  0.00     0.216 C 
ATOM     72  OG  SER     7      15.697   7.863   4.726  1.00  0.00    -0.218 OA
ENDBRANCH  49  71
ENDBRANCH  47  49
ENDBRANCH  42  46
ENDBRANCH   1  39
TORSDOF 33
ENDMDL
