MODEL 1
REMARK VINA RESULT:      -6.3      0.000      0.000
REMARK WARNING: 32 MAX_TORS EXCEEDED!!!
REMARK  42 active torsions:
REMARK  status: ('A' for Active; 'I' for Inactive)
REMARK    1  A    between atoms: CA_2  and  CB_3 
REMARK    2  A    between atoms: CA_2  and  C_11 
REMARK    3  A    between atoms: CB_3  and  CG_4 
REMARK       I    between atoms: C_11  and  N_13 
REMARK    4  A    between atoms: N_13  and  CA_14 
REMARK    5  A    between atoms: CA_14  and  CB_15 
REMARK    6  A    between atoms: CA_14  and  C_19 
REMARK    7  A    between atoms: CB_15  and  CG_16 
REMARK       I    between atoms: C_19  and  N_21 
REMARK    8  A    between atoms: CA_22  and  C_26 
REMARK       I    between atoms: C_26  and  N_28 
REMARK    9  A    between atoms: N_28  and  CA_29 
REMARK   10  A    between atoms: CA_29  and  C_35 
REMARK   11  A    between atoms: CA_29  and  CB_30 
REMARK   12  A    between atoms: CB_30  and  CG_31 
REMARK   13  A    between atoms: CG_31  and  CD_32 
REMARK       I    between atoms: C_35  and  N_37 
REMARK   14  A    between atoms: N_37  and  CA_38 
REMARK   15  A    between atoms: CA_38  and  CB_39 
REMARK   16  A    between atoms: CA_38  and  C_47 
REMARK   17  A    between atoms: CB_39  and  CG_40 
REMARK       I    between atoms: C_47  and  N_49 
REMARK   18  A    between atoms: N_49  and  CA_50 
REMARK   19  A    between atoms: CA_50  and  CB_51 
REMARK   20  A    between atoms: CA_50  and  C_58 
REMARK   21  A    between atoms: CB_51  and  CG_52 
REMARK   22  A    between atoms: CG_52  and  CD_53 
REMARK   23  A    between atoms: CD_53  and  NE_54 
REMARK       I    between atoms: C_58  and  N_60 
REMARK   24  A    between atoms: N_60  and  CA_61 
REMARK   25  A    between atoms: CA_61  and  C_66 
REMARK   26  A    between atoms: CA_61  and  CB_62 
REMARK   27  A    between atoms: CB_62  and  CG_63 
REMARK       I    between atoms: C_66  and  N_68 
REMARK   28  A    between atoms: N_68  and  CA_69 
REMARK   29  A    between atoms: CA_69  and  CB_70 
REMARK   30  A    between atoms: CA_69  and  C_77 
REMARK   31  A    between atoms: CB_70  and  CG_71 
REMARK       I    between atoms: C_77  and  N_79 
REMARK   32  A    between atoms: N_79  and  CA_80 
REMARK   33  A    between atoms: CA_80  and  CB_81 
REMARK   34  A    between atoms: CA_80  and  C_91 
REMARK   35  A    between atoms: CB_81  and  CG_82 
REMARK       I    between atoms: C_91  and  N_93 
REMARK   36  A    between atoms: N_93  and  CA_94 
REMARK   37  A    between atoms: CA_94  and  C_95 
REMARK       I    between atoms: C_95  and  N_97 
REMARK   38  A    between atoms: N_97  and  CA_98 
REMARK   39  A    between atoms: CA_98  and  C_101 
REMARK   40  A    between atoms: CA_98  and  CB_99 
REMARK       I    between atoms: C_101  and  N_103 
REMARK   41  A    between atoms: N_103  and  CA_104 
REMARK   42  A    between atoms: CA_104  and  C_105 
ROOT
ATOM      1  CA  ARG     6      -0.479   5.738   7.865  1.00  0.00     0.186 C 
ENDROOT
BRANCH   1   2
ATOM      2  N   ARG     6      -0.482   4.583   8.793  1.00  0.00    -0.229 NA
ATOM      3  C   TYR     5      -0.923   3.372   8.429  1.00  0.00     0.275 C 
ATOM      4  O   TYR     5      -1.328   3.132   7.292  1.00  0.00    -0.268 OA
BRANCH   3   5
ATOM      5  CA  TYR     5      -0.802   2.242   9.465  1.00  0.00     0.191 C 
BRANCH   5   6
ATOM      6  N   TYR     5      -1.903   2.231  10.462  1.00  0.00    -0.228 NA
ATOM      7  C   GLU     4      -1.704   2.417  11.778  1.00  0.00     0.274 C 
ATOM      8  O   GLU     4      -0.621   2.749  12.241  1.00  0.00    -0.268 OA
BRANCH   7   9
ATOM      9  CA  GLU     4      -2.975   2.514  12.647  1.00  0.00     0.187 C 
BRANCH   9  10
ATOM     10  CB  GLU     4      -3.374   1.116  13.146  1.00  0.00     0.045 C 
BRANCH  10  11
ATOM     11  CG  GLU     4      -2.519  -0.063  12.631  1.00  0.00     0.100 C 
BRANCH  11  12
ATOM     12  CD  GLU     4      -3.238  -0.974  11.636  1.00  0.00     0.185 C 
ATOM     13  OE1 GLU     4      -3.915  -0.420  10.730  1.00  0.00    -0.647 OA
ATOM     14  OE2 GLU     4      -3.507  -2.128  12.025  1.00  0.00    -0.647 OA
ENDBRANCH  11  12
ENDBRANCH  10  11
ENDBRANCH   9  10
BRANCH   9  15
ATOM     15  N   GLU     4      -4.123   3.106  11.935  1.00  0.00    -0.229 NA
ATOM     16  C   PRO     3      -4.328   4.382  11.627  1.00  0.00     0.272 C 
ATOM     17  O   PRO     3      -3.423   5.214  11.558  1.00  0.00    -0.269 OA
BRANCH  16  18
ATOM     18  CA  PRO     3      -5.632   4.672  10.881  1.00  0.00     0.165 C 
ATOM     19  N   PRO     3      -5.970   3.700   9.819  1.00  0.00    -0.312 N 
ATOM     20  CD  PRO     3      -7.429   3.421   9.844  1.00  0.00     0.105 C 
ATOM     21  C   ASP     2      -5.099   3.273   8.887  1.00  0.00     0.257 C 
ATOM     22  CG  PRO     3      -7.994   4.445  10.840  1.00  0.00     0.027 C 
ATOM     23  CB  PRO     3      -6.842   4.681  11.812  1.00  0.00     0.034 C 
ATOM     24  O   ASP     2      -4.007   3.843   8.741  1.00  0.00    -0.270 OA
BRANCH  21  25
ATOM     25  CA  ASP     2      -5.586   2.321   7.771  1.00  0.00     0.195 C 
BRANCH  25  26
ATOM     26  CB  ASP     2      -4.530   1.346   7.188  1.00  0.00     0.132 C 
BRANCH  26  27
ATOM     27  CG  ASP     2      -5.159  -0.037   6.933  1.00  0.00     0.188 C 
ATOM     28  OD2 ASP     2      -5.686  -0.585   7.934  1.00  0.00    -0.647 OA
ATOM     29  OD1 ASP     2      -4.639  -0.734   6.026  1.00  0.00    -0.647 OA
ENDBRANCH  26  27
ENDBRANCH  25  26
BRANCH  25  30
ATOM     30  N   ASP     2      -6.037   3.053   6.575  1.00  0.00    -0.228 NA
ATOM     31  C   TYR     1      -7.115   2.811   5.867  1.00  0.00     0.289 C 
ATOM     32  O   TYR     1      -8.032   2.024   6.122  1.00  0.00    -0.268 OA
BRANCH  31  33
ATOM     33  CA  TYR     1      -7.147   3.627   4.578  1.00  0.00     0.385 C 
ATOM     34  N   TYR     1      -8.198   3.064   3.714  1.00  0.00     0.626 N 
BRANCH  33  35
ATOM     35  CB  TYR     1      -7.423   5.078   4.965  1.00  0.00     0.075 C 
BRANCH  35  36
ATOM     36  CG  TYR     1      -6.217   6.001   4.731  1.00  0.00    -0.019 A 
ATOM     37  CD2 TYR     1      -5.306   5.757   3.715  1.00  0.00    -0.002 A 
ATOM     38  CE2 TYR     1      -4.307   6.677   3.438  1.00  0.00     0.027 A 
ATOM     39  CZ  TYR     1      -4.227   7.844   4.198  1.00  0.00     0.131 A 
ATOM     40  CE1 TYR     1      -5.114   8.061   5.237  1.00  0.00     0.027 A 
ATOM     41  OH  TYR     1      -3.389   8.835   3.834  1.00  0.00    -0.190 OA
ATOM     42  CD1 TYR     1      -6.114   7.141   5.514  1.00  0.00    -0.002 A 
ENDBRANCH  35  36
ENDBRANCH  33  35
ENDBRANCH  31  33
ENDBRANCH  25  30
ENDBRANCH  21  25
ENDBRANCH  16  18
ENDBRANCH   9  15
ENDBRANCH   7   9
ENDBRANCH   5   6
BRANCH   5  43
ATOM     43  CB  TYR     5      -0.702   0.872   8.774  1.00  0.00     0.060 C 
BRANCH  43  44
ATOM     44  CG  TYR     5       0.409  -0.005   9.375  1.00  0.00    -0.020 A 
ATOM     45  CD2 TYR     5       0.233  -0.625  10.605  1.00  0.00    -0.002 A 
ATOM     46  CE2 TYR     5       1.242  -1.423  11.138  1.00  0.00     0.027 A 
ATOM     47  CZ  TYR     5       2.426  -1.601  10.440  1.00  0.00     0.131 A 
ATOM     48  CE1 TYR     5       2.603  -0.998   9.199  1.00  0.00     0.027 A 
ATOM     49  OH  TYR     5       3.460  -2.257  11.010  1.00  0.00    -0.190 OA
ATOM     50  CD1 TYR     5       1.594  -0.192   8.672  1.00  0.00    -0.002 A 
ENDBRANCH  43  44
ENDBRANCH   5  43
ENDBRANCH   3   5
ENDBRANCH   1   2
BRANCH   1  51
ATOM     51  CB  ARG     6      -1.188   6.962   8.439  1.00  0.00     0.036 C 
BRANCH  51  52
ATOM     52  CG  ARG     6      -2.698   6.970   8.191  1.00  0.00     0.029 C 
BRANCH  52  53
ATOM     53  CD  ARG     6      -3.398   7.869   9.206  1.00  0.00     0.145 C 
BRANCH  53  54
ATOM     54  NE  ARG     6      -4.857   7.676   9.165  1.00  0.00    -0.083 NA
ATOM     55  CZ  ARG     6      -5.763   8.626   8.865  1.00  0.00     0.782 C 
ATOM     56  NH2 ARG     6      -7.070   8.364   8.938  1.00  0.00     0.063 N 
ATOM     57  NH1 ARG     6      -5.369   9.861   8.575  1.00  0.00     0.063 N 
ENDBRANCH  53  54
ENDBRANCH  52  53
ENDBRANCH  51  52
ENDBRANCH   1  51
BRANCH   1  58
ATOM     58  C   ARG     6       0.939   6.188   7.492  1.00  0.00     0.274 C 
ATOM     59  N   ASN     7       1.599   6.856   8.433  1.00  0.00    -0.228 NA
ATOM     60  O   ARG     6       1.380   5.919   6.373  1.00  0.00    -0.268 OA
BRANCH  59  61
ATOM     61  CA  ASN     7       3.007   7.283   8.294  1.00  0.00     0.196 C 
BRANCH  61  62
ATOM     62  C   ASN     7       3.983   6.159   8.693  1.00  0.00     0.275 C 
ATOM     63  N   PHE     8       4.406   5.346   7.714  1.00  0.00    -0.228 NA
ATOM     64  O   ASN     7       4.596   6.302   9.733  1.00  0.00    -0.268 OA
BRANCH  63  65
ATOM     65  CA  PHE     8       5.407   4.265   7.882  1.00  0.00     0.191 C 
BRANCH  65  66
ATOM     66  CB  PHE     8       4.662   2.925   7.953  1.00  0.00     0.060 C 
BRANCH  66  67
ATOM     67  CG  PHE     8       4.263   2.493   9.376  1.00  0.00    -0.020 A 
ATOM     68  CD1 PHE     8       5.109   1.678  10.115  1.00  0.00    -0.004 A 
ATOM     69  CE1 PHE     8       4.702   1.204  11.362  1.00  0.00    -0.000 A 
ATOM     70  CZ  PHE     8       3.461   1.562  11.863  1.00  0.00    -0.000 A 
ATOM     71  CE2 PHE     8       2.617   2.390  11.130  1.00  0.00    -0.000 A 
ATOM     72  CD2 PHE     8       3.024   2.864   9.883  1.00  0.00    -0.004 A 
ENDBRANCH  66  67
ENDBRANCH  65  66
BRANCH  65  73
ATOM     73  C   PHE     8       6.527   4.240   6.817  1.00  0.00     0.275 C 
ATOM     74  N   TRP     9       7.438   3.273   6.936  1.00  0.00    -0.228 NA
ATOM     75  O   PHE     8       6.706   5.200   6.064  1.00  0.00    -0.268 OA
BRANCH  74  76
ATOM     76  CA  TRP     9       8.494   3.056   5.917  1.00  0.00     0.191 C 
BRANCH  76  77
ATOM     77  CB  TRP     9       9.869   3.248   6.578  1.00  0.00     0.062 C 
BRANCH  77  78
ATOM     78  CG  TRP     9      10.861   4.006   5.696  1.00  0.00     0.001 A 
ATOM     79  CD1 TRP     9      11.569   3.489   4.697  1.00  0.00     0.095 A 
ATOM     80  NE1 TRP     9      12.531   4.334   4.346  1.00  0.00    -0.244 NA
ATOM     81  CE2 TRP     9      12.457   5.425   5.095  1.00  0.00     0.081 A 
ATOM     82  CD2 TRP     9      11.409   5.252   5.984  1.00  0.00     0.015 A 
ATOM     83  CZ2 TRP     9      13.263   6.558   5.197  1.00  0.00     0.019 A 
ATOM     84  CE3 TRP     9      11.162   6.183   6.982  1.00  0.00     0.001 A 
ATOM     85  CZ3 TRP     9      11.973   7.307   7.095  1.00  0.00     0.000 A 
ATOM     86  CH2 TRP     9      13.011   7.499   6.186  1.00  0.00     0.002 A 
ENDBRANCH  77  78
ENDBRANCH  76  77
BRANCH  76  87
ATOM     87  C   TRP     9       8.402   1.703   5.175  1.00  0.00     0.275 C 
ATOM     88  O   TRP     9       8.546   1.641   3.958  1.00  0.00    -0.268 OA
ATOM     89  N   GLY    10       8.261   0.622   5.941  1.00  0.00    -0.226 NA
BRANCH  89  90
ATOM     90  CA  GLY    10       8.196  -0.771   5.420  1.00  0.00     0.218 C 
BRANCH  90  91
ATOM     91  C   GLY    10       8.716  -1.875   6.356  1.00  0.00     0.277 C 
ATOM     92  N   CYS    11       8.108  -1.941   7.539  1.00  0.00    -0.228 NA
ATOM     93  O   GLY    10       9.726  -2.508   6.073  1.00  0.00    -0.268 OA
BRANCH  92  94
ATOM     94  CA  CYS    11       8.386  -2.913   8.620  1.00  0.00     0.198 C 
BRANCH  94  95
ATOM     95  C   CYS    11       7.047  -3.276   9.293  1.00  0.00     0.275 C 
ATOM     96  O   CYS    11       6.454  -2.420   9.940  1.00  0.00    -0.268 OA
ATOM     97  N   GLY    12       6.724  -4.561   9.290  1.00  0.00    -0.225 NA
BRANCH  97  98
ATOM     98  CA  GLY    12       5.491  -5.079   9.902  1.00  0.00     0.226 C 
BRANCH  98  99
ATOM     99  C   GLY    12       4.437  -5.249   8.784  1.00  0.00     0.211 C 
ATOM    100  O1  GLY    12       3.752  -4.235   8.495  1.00  0.00    -0.646 OA
ATOM    101  O2  GLY    12       4.360  -6.358   8.222  1.00  0.00    -0.646 OA
ENDBRANCH  98  99
ENDBRANCH  97  98
ENDBRANCH  94  95
BRANCH  94 102
ATOM    102  CB  CYS    11       9.231  -2.259   9.711  1.00  0.00     0.103 C 
ATOM    103  SG  CYS    11       9.824  -3.367  11.047  1.00  0.00    -0.080 SA
ENDBRANCH  94 102
ENDBRANCH  92  94
ENDBRANCH  90  91
ENDBRANCH  89  90
ENDBRANCH  76  87
ENDBRANCH  74  76
ENDBRANCH  65  73
ENDBRANCH  63  65
ENDBRANCH  61  62
BRANCH  61 104
ATOM    104  CB  ASN     7       3.284   8.558   9.100  1.00  0.00     0.126 C 
BRANCH 104 105
ATOM    105  CG  ASN     7       2.554   9.816   8.594  1.00  0.00     0.276 C 
ATOM    106  ND2 ASN     7       1.521  10.208   9.304  1.00  0.00    -0.107 N 
ATOM    107  OD1 ASN     7       2.765  10.367   7.521  1.00  0.00    -0.269 OA
ENDBRANCH 104 105
ENDBRANCH  61 104
ENDBRANCH  59  61
ENDBRANCH   1  58
TORSDOF 42
ENDMDL
MODEL 2
REMARK VINA RESULT:      -5.8      1.251      2.120
REMARK WARNING: 32 MAX_TORS EXCEEDED!!!
REMARK  42 active torsions:
REMARK  status: ('A' for Active; 'I' for Inactive)
REMARK    1  A    between atoms: CA_2  and  CB_3 
REMARK    2  A    between atoms: CA_2  and  C_11 
REMARK    3  A    between atoms: CB_3  and  CG_4 
REMARK       I    between atoms: C_11  and  N_13 
REMARK    4  A    between atoms: N_13  and  CA_14 
REMARK    5  A    between atoms: CA_14  and  CB_15 
REMARK    6  A    between atoms: CA_14  and  C_19 
REMARK    7  A    between atoms: CB_15  and  CG_16 
REMARK       I    between atoms: C_19  and  N_21 
REMARK    8  A    between atoms: CA_22  and  C_26 
REMARK       I    between atoms: C_26  and  N_28 
REMARK    9  A    between atoms: N_28  and  CA_29 
REMARK   10  A    between atoms: CA_29  and  C_35 
REMARK   11  A    between atoms: CA_29  and  CB_30 
REMARK   12  A    between atoms: CB_30  and  CG_31 
REMARK   13  A    between atoms: CG_31  and  CD_32 
REMARK       I    between atoms: C_35  and  N_37 
REMARK   14  A    between atoms: N_37  and  CA_38 
REMARK   15  A    between atoms: CA_38  and  CB_39 
REMARK   16  A    between atoms: CA_38  and  C_47 
REMARK   17  A    between atoms: CB_39  and  CG_40 
REMARK       I    between atoms: C_47  and  N_49 
REMARK   18  A    between atoms: N_49  and  CA_50 
REMARK   19  A    between atoms: CA_50  and  CB_51 
REMARK   20  A    between atoms: CA_50  and  C_58 
REMARK   21  A    between atoms: CB_51  and  CG_52 
REMARK   22  A    between atoms: CG_52  and  CD_53 
REMARK   23  A    between atoms: CD_53  and  NE_54 
REMARK       I    between atoms: C_58  and  N_60 
REMARK   24  A    between atoms: N_60  and  CA_61 
REMARK   25  A    between atoms: CA_61  and  C_66 
REMARK   26  A    between atoms: CA_61  and  CB_62 
REMARK   27  A    between atoms: CB_62  and  CG_63 
REMARK       I    between atoms: C_66  and  N_68 
REMARK   28  A    between atoms: N_68  and  CA_69 
REMARK   29  A    between atoms: CA_69  and  CB_70 
REMARK   30  A    between atoms: CA_69  and  C_77 
REMARK   31  A    between atoms: CB_70  and  CG_71 
REMARK       I    between atoms: C_77  and  N_79 
REMARK   32  A    between atoms: N_79  and  CA_80 
REMARK   33  A    between atoms: CA_80  and  CB_81 
REMARK   34  A    between atoms: CA_80  and  C_91 
REMARK   35  A    between atoms: CB_81  and  CG_82 
REMARK       I    between atoms: C_91  and  N_93 
REMARK   36  A    between atoms: N_93  and  CA_94 
REMARK   37  A    between atoms: CA_94  and  C_95 
REMARK       I    between atoms: C_95  and  N_97 
REMARK   38  A    between atoms: N_97  and  CA_98 
REMARK   39  A    between atoms: CA_98  and  C_101 
REMARK   40  A    between atoms: CA_98  and  CB_99 
REMARK       I    between atoms: C_101  and  N_103 
REMARK   41  A    between atoms: N_103  and  CA_104 
REMARK   42  A    between atoms: CA_104  and  C_105 
ROOT
ATOM      1  CA  ARG     6      -0.506   5.702   7.827  1.00  0.00     0.186 C 
ENDROOT
BRANCH   1   2
ATOM      2  N   ARG     6      -0.485   4.559   8.769  1.00  0.00    -0.229 NA
ATOM      3  C   TYR     5      -0.906   3.335   8.423  1.00  0.00     0.275 C 
ATOM      4  O   TYR     5      -1.311   3.074   7.290  1.00  0.00    -0.268 OA
BRANCH   3   5
ATOM      5  CA  TYR     5      -0.760   2.221   9.472  1.00  0.00     0.191 C 
BRANCH   5   6
ATOM      6  N   TYR     5      -1.810   2.255  10.523  1.00  0.00    -0.228 NA
ATOM      7  C   GLU     4      -1.533   2.329  11.835  1.00  0.00     0.274 C 
ATOM      8  O   GLU     4      -0.401   2.516  12.261  1.00  0.00    -0.268 OA
BRANCH   7   9
ATOM      9  CA  GLU     4      -2.745   2.498  12.774  1.00  0.00     0.187 C 
BRANCH   9  10
ATOM     10  CB  GLU     4      -3.109   1.143  13.403  1.00  0.00     0.045 C 
BRANCH  10  11
ATOM     11  CG  GLU     4      -2.506  -0.108  12.728  1.00  0.00     0.100 C 
BRANCH  11  12
ATOM     12  CD  GLU     4      -3.488  -0.884  11.849  1.00  0.00     0.185 C 
ATOM     13  OE1 GLU     4      -3.539  -2.132  12.003  1.00  0.00    -0.647 OA
ATOM     14  OE2 GLU     4      -3.808  -0.356  10.765  1.00  0.00    -0.647 OA
ENDBRANCH  11  12
ENDBRANCH  10  11
ENDBRANCH   9  10
BRANCH   9  15
ATOM     15  N   GLU     4      -3.938   3.038  12.095  1.00  0.00    -0.229 NA
ATOM     16  C   PRO     3      -4.212   4.304  11.802  1.00  0.00     0.272 C 
ATOM     17  O   PRO     3      -3.351   5.181  11.720  1.00  0.00    -0.269 OA
BRANCH  16  18
ATOM     18  CA  PRO     3      -5.546   4.535  11.089  1.00  0.00     0.165 C 
ATOM     19  N   PRO     3      -5.849   3.571  10.011  1.00  0.00    -0.312 N 
ATOM     20  CD  PRO     3      -7.289   3.206  10.057  1.00  0.00     0.105 C 
ATOM     21  C   ASP     2      -4.975   3.217   9.051  1.00  0.00     0.257 C 
ATOM     22  CG  PRO     3      -7.891   4.172  11.089  1.00  0.00     0.027 C 
ATOM     23  CB  PRO     3      -6.734   4.451  12.044  1.00  0.00     0.034 C 
ATOM     24  O   ASP     2      -3.921   3.853   8.898  1.00  0.00    -0.270 OA
BRANCH  21  25
ATOM     25  CA  ASP     2      -5.429   2.264   7.922  1.00  0.00     0.195 C 
BRANCH  25  26
ATOM     26  CB  ASP     2      -4.333   1.364   7.297  1.00  0.00     0.132 C 
BRANCH  26  27
ATOM     27  CG  ASP     2      -4.826  -0.091   7.195  1.00  0.00     0.188 C 
ATOM     28  OD2 ASP     2      -4.755  -0.608   6.050  1.00  0.00    -0.647 OA
ATOM     29  OD1 ASP     2      -5.730  -0.438   7.995  1.00  0.00    -0.647 OA
ENDBRANCH  26  27
ENDBRANCH  25  26
BRANCH  25  30
ATOM     30  N   ASP     2      -5.944   2.998   6.753  1.00  0.00    -0.228 NA
ATOM     31  C   TYR     1      -6.926   2.627   5.964  1.00  0.00     0.289 C 
ATOM     32  O   TYR     1      -7.702   1.677   6.110  1.00  0.00    -0.268 OA
BRANCH  31  33
ATOM     33  CA  TYR     1      -7.039   3.522   4.734  1.00  0.00     0.385 C 
ATOM     34  N   TYR     1      -7.997   2.895   3.807  1.00  0.00     0.626 N 
BRANCH  33  35
ATOM     35  CB  TYR     1      -7.501   4.896   5.211  1.00  0.00     0.075 C 
BRANCH  35  36
ATOM     36  CG  TYR     1      -6.481   6.008   4.920  1.00  0.00    -0.019 A 
ATOM     37  CD2 TYR     1      -6.602   7.267   5.487  1.00  0.00    -0.002 A 
ATOM     38  CE2 TYR     1      -5.598   8.208   5.318  1.00  0.00     0.027 A 
ATOM     39  CZ  TYR     1      -4.472   7.873   4.566  1.00  0.00     0.131 A 
ATOM     40  CE1 TYR     1      -4.377   6.629   3.968  1.00  0.00     0.027 A 
ATOM     41  OH  TYR     1      -3.404   8.696   4.542  1.00  0.00    -0.190 OA
ATOM     42  CD1 TYR     1      -5.381   5.688   4.138  1.00  0.00    -0.002 A 
ENDBRANCH  35  36
ENDBRANCH  33  35
ENDBRANCH  31  33
ENDBRANCH  25  30
ENDBRANCH  21  25
ENDBRANCH  16  18
ENDBRANCH   9  15
ENDBRANCH   7   9
ENDBRANCH   5   6
BRANCH   5  43
ATOM     43  CB  TYR     5      -0.729   0.837   8.802  1.00  0.00     0.060 C 
BRANCH  43  44
ATOM     44  CG  TYR     5       0.416  -0.043   9.334  1.00  0.00    -0.020 A 
ATOM     45  CD2 TYR     5       1.600  -0.170   8.619  1.00  0.00    -0.002 A 
ATOM     46  CE2 TYR     5       2.633  -0.962   9.111  1.00  0.00     0.027 A 
ATOM     47  CZ  TYR     5       2.482  -1.626  10.318  1.00  0.00     0.131 A 
ATOM     48  CE1 TYR     5       1.306  -1.490  11.049  1.00  0.00     0.027 A 
ATOM     49  OH  TYR     5       3.420  -2.505  10.734  1.00  0.00    -0.190 OA
ATOM     50  CD1 TYR     5       0.269  -0.703  10.549  1.00  0.00    -0.002 A 
ENDBRANCH  43  44
ENDBRANCH   5  43
ENDBRANCH   3   5
ENDBRANCH   1   2
BRANCH   1  51
ATOM     51  CB  ARG     6      -1.228   6.922   8.390  1.00  0.00     0.036 C 
BRANCH  51  52
ATOM     52  CG  ARG     6      -2.725   6.952   8.072  1.00  0.00     0.029 C 
BRANCH  52  53
ATOM     53  CD  ARG     6      -3.496   7.623   9.205  1.00  0.00     0.145 C 
BRANCH  53  54
ATOM     54  NE  ARG     6      -4.722   8.265   8.702  1.00  0.00    -0.083 NA
ATOM     55  CZ  ARG     6      -5.030   9.569   8.832  1.00  0.00     0.782 C 
ATOM     56  NH2 ARG     6      -6.209  10.032   8.411  1.00  0.00     0.063 N 
ATOM     57  NH1 ARG     6      -4.200  10.395   9.460  1.00  0.00     0.063 N 
ENDBRANCH  53  54
ENDBRANCH  52  53
ENDBRANCH  51  52
ENDBRANCH   1  51
BRANCH   1  58
ATOM     58  C   ARG     6       0.903   6.167   7.437  1.00  0.00     0.274 C 
ATOM     59  N   ASN     7       1.570   6.835   8.374  1.00  0.00    -0.228 NA
ATOM     60  O   ARG     6       1.330   5.912   6.310  1.00  0.00    -0.268 OA
BRANCH  59  61
ATOM     61  CA  ASN     7       2.971   7.276   8.218  1.00  0.00     0.196 C 
BRANCH  61  62
ATOM     62  C   ASN     7       3.963   6.182   8.658  1.00  0.00     0.275 C 
ATOM     63  N   PHE     8       4.346   5.298   7.724  1.00  0.00    -0.228 NA
ATOM     64  O   ASN     7       4.619   6.398   9.659  1.00  0.00    -0.268 OA
BRANCH  63  65
ATOM     65  CA  PHE     8       5.354   4.229   7.931  1.00  0.00     0.191 C 
BRANCH  65  66
ATOM     66  CB  PHE     8       4.620   2.883   7.995  1.00  0.00     0.060 C 
BRANCH  66  67
ATOM     67  CG  PHE     8       4.385   2.354   9.422  1.00  0.00    -0.020 A 
ATOM     68  CD1 PHE     8       5.310   1.499  10.006  1.00  0.00    -0.004 A 
ATOM     69  CE1 PHE     8       5.047   0.940  11.256  1.00  0.00    -0.000 A 
ATOM     70  CZ  PHE     8       3.869   1.254  11.916  1.00  0.00    -0.000 A 
ATOM     71  CE2 PHE     8       2.947   2.121  11.339  1.00  0.00    -0.000 A 
ATOM     72  CD2 PHE     8       3.210   2.680  10.089  1.00  0.00    -0.004 A 
ENDBRANCH  66  67
ENDBRANCH  65  66
BRANCH  65  73
ATOM     73  C   PHE     8       6.501   4.206   6.896  1.00  0.00     0.275 C 
ATOM     74  N   TRP     9       7.422   3.253   7.052  1.00  0.00    -0.228 NA
ATOM     75  O   PHE     8       6.688   5.158   6.135  1.00  0.00    -0.268 OA
BRANCH  74  76
ATOM     76  CA  TRP     9       8.508   3.037   6.064  1.00  0.00     0.191 C 
BRANCH  76  77
ATOM     77  CB  TRP     9       9.863   3.186   6.776  1.00  0.00     0.062 C 
BRANCH  77  78
ATOM     78  CG  TRP     9       9.731   3.605   8.239  1.00  0.00     0.001 A 
ATOM     79  CD1 TRP     9      10.134   4.761   8.759  1.00  0.00     0.095 A 
ATOM     80  NE1 TRP     9      10.140   4.679  10.084  1.00  0.00    -0.244 NA
ATOM     81  CE2 TRP     9       9.724   3.477  10.455  1.00  0.00     0.081 A 
ATOM     82  CD2 TRP     9       9.464   2.750   9.304  1.00  0.00     0.015 A 
ATOM     83  CZ2 TRP     9       9.629   2.850  11.697  1.00  0.00     0.019 A 
ATOM     84  CE3 TRP     9       9.126   1.407   9.373  1.00  0.00     0.001 A 
ATOM     85  CZ3 TRP     9       9.043   0.777  10.610  1.00  0.00     0.000 A 
ATOM     86  CH2 TRP     9       9.278   1.511  11.771  1.00  0.00     0.002 A 
ENDBRANCH  77  78
ENDBRANCH  76  77
BRANCH  76  87
ATOM     87  C   TRP     9       8.414   1.703   5.290  1.00  0.00     0.275 C 
ATOM     88  O   TRP     9       8.691   1.647   4.095  1.00  0.00    -0.268 OA
ATOM     89  N   GLY    10       8.118   0.623   6.011  1.00  0.00    -0.226 NA
BRANCH  89  90
ATOM     90  CA  GLY    10       8.024  -0.755   5.458  1.00  0.00     0.218 C 
BRANCH  90  91
ATOM     91  C   GLY    10       8.731  -1.862   6.258  1.00  0.00     0.277 C 
ATOM     92  N   CYS    11       8.273  -2.041   7.497  1.00  0.00    -0.228 NA
ATOM     93  O   GLY    10       9.746  -2.394   5.824  1.00  0.00    -0.268 OA
BRANCH  92  94
ATOM     94  CA  CYS    11       8.748  -3.044   8.476  1.00  0.00     0.198 C 
BRANCH  94  95
ATOM     95  C   CYS    11       7.664  -3.206   9.559  1.00  0.00     0.275 C 
ATOM     96  O   CYS    11       7.350  -2.234  10.238  1.00  0.00    -0.268 OA
ATOM     97  N   GLY    12       7.281  -4.448   9.818  1.00  0.00    -0.225 NA
BRANCH  97  98
ATOM     98  CA  GLY    12       6.269  -4.779  10.832  1.00  0.00     0.226 C 
BRANCH  98  99
ATOM     99  C   GLY    12       5.057  -5.413  10.109  1.00  0.00     0.211 C 
ATOM    100  O1  GLY    12       5.141  -5.522   8.859  1.00  0.00    -0.646 OA
ATOM    101  O2  GLY    12       4.103  -5.802  10.807  1.00  0.00    -0.646 OA
ENDBRANCH  98  99
ENDBRANCH  97  98
ENDBRANCH  94  95
BRANCH  94 102
ATOM    102  CB  CYS    11       9.984  -2.522   9.205  1.00  0.00     0.103 C 
ATOM    103  SG  CYS    11      10.780  -3.684  10.381  1.00  0.00    -0.080 SA
ENDBRANCH  94 102
ENDBRANCH  92  94
ENDBRANCH  90  91
ENDBRANCH  89  90
ENDBRANCH  76  87
ENDBRANCH  74  76
ENDBRANCH  65  73
ENDBRANCH  63  65
ENDBRANCH  61  62
BRANCH  61 104
ATOM    104  CB  ASN     7       3.231   8.584   8.976  1.00  0.00     0.126 C 
BRANCH 104 105
ATOM    105  CG  ASN     7       2.330   9.763   8.561  1.00  0.00     0.276 C 
ATOM    106  ND2 ASN     7       2.457  10.176   7.321  1.00  0.00    -0.107 N 
ATOM    107  OD1 ASN     7       1.640  10.423   9.326  1.00  0.00    -0.269 OA
ENDBRANCH 104 105
ENDBRANCH  61 104
ENDBRANCH  59  61
ENDBRANCH   1  58
TORSDOF 42
ENDMDL
MODEL 3
REMARK VINA RESULT:      -5.6      4.327     11.589
REMARK WARNING: 32 MAX_TORS EXCEEDED!!!
REMARK  42 active torsions:
REMARK  status: ('A' for Active; 'I' for Inactive)
REMARK    1  A    between atoms: CA_2  and  CB_3 
REMARK    2  A    between atoms: CA_2  and  C_11 
REMARK    3  A    between atoms: CB_3  and  CG_4 
REMARK       I    between atoms: C_11  and  N_13 
REMARK    4  A    between atoms: N_13  and  CA_14 
REMARK    5  A    between atoms: CA_14  and  CB_15 
REMARK    6  A    between atoms: CA_14  and  C_19 
REMARK    7  A    between atoms: CB_15  and  CG_16 
REMARK       I    between atoms: C_19  and  N_21 
REMARK    8  A    between atoms: CA_22  and  C_26 
REMARK       I    between atoms: C_26  and  N_28 
REMARK    9  A    between atoms: N_28  and  CA_29 
REMARK   10  A    between atoms: CA_29  and  C_35 
REMARK   11  A    between atoms: CA_29  and  CB_30 
REMARK   12  A    between atoms: CB_30  and  CG_31 
REMARK   13  A    between atoms: CG_31  and  CD_32 
REMARK       I    between atoms: C_35  and  N_37 
REMARK   14  A    between atoms: N_37  and  CA_38 
REMARK   15  A    between atoms: CA_38  and  CB_39 
REMARK   16  A    between atoms: CA_38  and  C_47 
REMARK   17  A    between atoms: CB_39  and  CG_40 
REMARK       I    between atoms: C_47  and  N_49 
REMARK   18  A    between atoms: N_49  and  CA_50 
REMARK   19  A    between atoms: CA_50  and  CB_51 
REMARK   20  A    between atoms: CA_50  and  C_58 
REMARK   21  A    between atoms: CB_51  and  CG_52 
REMARK   22  A    between atoms: CG_52  and  CD_53 
REMARK   23  A    between atoms: CD_53  and  NE_54 
REMARK       I    between atoms: C_58  and  N_60 
REMARK   24  A    between atoms: N_60  and  CA_61 
REMARK   25  A    between atoms: CA_61  and  C_66 
REMARK   26  A    between atoms: CA_61  and  CB_62 
REMARK   27  A    between atoms: CB_62  and  CG_63 
REMARK       I    between atoms: C_66  and  N_68 
REMARK   28  A    between atoms: N_68  and  CA_69 
REMARK   29  A    between atoms: CA_69  and  CB_70 
REMARK   30  A    between atoms: CA_69  and  C_77 
REMARK   31  A    between atoms: CB_70  and  CG_71 
REMARK       I    between atoms: C_77  and  N_79 
REMARK   32  A    between atoms: N_79  and  CA_80 
REMARK   33  A    between atoms: CA_80  and  CB_81 
REMARK   34  A    between atoms: CA_80  and  C_91 
REMARK   35  A    between atoms: CB_81  and  CG_82 
REMARK       I    between atoms: C_91  and  N_93 
REMARK   36  A    between atoms: N_93  and  CA_94 
REMARK   37  A    between atoms: CA_94  and  C_95 
REMARK       I    between atoms: C_95  and  N_97 
REMARK   38  A    between atoms: N_97  and  CA_98 
REMARK   39  A    between atoms: CA_98  and  C_101 
REMARK   40  A    between atoms: CA_98  and  CB_99 
REMARK       I    between atoms: C_101  and  N_103 
REMARK   41  A    between atoms: N_103  and  CA_104 
REMARK   42  A    between atoms: CA_104  and  C_105 
ROOT
ATOM      1  CA  ARG     6      -5.786   1.685   5.203  1.00  0.00     0.186 C 
ENDROOT
BRANCH   1   2
ATOM      2  N   ARG     6      -6.002   1.160   6.572  1.00  0.00    -0.229 NA
ATOM      3  C   TYR     5      -5.440   0.023   7.001  1.00  0.00     0.275 C 
ATOM      4  O   TYR     5      -4.683  -0.645   6.296  1.00  0.00    -0.268 OA
BRANCH   3   5
ATOM      5  CA  TYR     5      -5.685  -0.371   8.467  1.00  0.00     0.191 C 
BRANCH   5   6
ATOM      6  N   TYR     5      -4.597   0.053   9.385  1.00  0.00    -0.228 NA
ATOM      7  C   GLU     4      -4.312  -0.588  10.531  1.00  0.00     0.274 C 
ATOM      8  O   GLU     4      -4.834  -1.652  10.840  1.00  0.00    -0.268 OA
BRANCH   7   9
ATOM      9  CA  GLU     4      -3.062  -0.097  11.288  1.00  0.00     0.187 C 
BRANCH   9  10
ATOM     10  CB  GLU     4      -2.962   1.434  11.193  1.00  0.00     0.045 C 
BRANCH  10  11
ATOM     11  CG  GLU     4      -3.222   2.219  12.498  1.00  0.00     0.100 C 
BRANCH  11  12
ATOM     12  CD  GLU     4      -4.605   2.863  12.579  1.00  0.00     0.185 C 
ATOM     13  OE1 GLU     4      -4.703   3.945  13.217  1.00  0.00    -0.647 OA
ATOM     14  OE2 GLU     4      -5.587   2.104  12.448  1.00  0.00    -0.647 OA
ENDBRANCH  11  12
ENDBRANCH  10  11
ENDBRANCH   9  10
BRANCH   9  15
ATOM     15  N   GLU     4      -1.806  -0.683  10.781  1.00  0.00    -0.229 NA
ATOM     16  C   PRO     3      -0.629  -0.752  11.391  1.00  0.00     0.272 C 
ATOM     17  O   PRO     3      -0.494  -0.673  12.613  1.00  0.00    -0.269 OA
BRANCH  16  18
ATOM     18  CA  PRO     3       0.484  -1.427  10.587  1.00  0.00     0.165 C 
ATOM     19  N   PRO     3       1.825  -0.827  10.757  1.00  0.00    -0.312 N 
ATOM     20  CD  PRO     3       2.847  -1.902  10.833  1.00  0.00     0.105 C 
ATOM     21  C   ASP     2       2.071   0.494  10.690  1.00  0.00     0.257 C 
ATOM     22  CG  PRO     3       2.077  -3.183  10.479  1.00  0.00     0.027 C 
ATOM     23  CB  PRO     3       0.657  -2.898  10.959  1.00  0.00     0.034 C 
ATOM     24  O   ASP     2       1.203   1.272  10.265  1.00  0.00    -0.270 OA
BRANCH  21  25
ATOM     25  CA  ASP     2       3.526   1.004  10.796  1.00  0.00     0.195 C 
BRANCH  25  26
ATOM     26  CB  ASP     2       3.867   1.858  12.045  1.00  0.00     0.132 C 
BRANCH  26  27
ATOM     27  CG  ASP     2       5.149   1.334  12.720  1.00  0.00     0.188 C 
ATOM     28  OD2 ASP     2       5.401   0.117  12.532  1.00  0.00    -0.647 OA
ATOM     29  OD1 ASP     2       5.495   1.898  13.788  1.00  0.00    -0.647 OA
ENDBRANCH  26  27
ENDBRANCH  25  26
BRANCH  25  30
ATOM     30  N   ASP     2       3.879   1.906   9.687  1.00  0.00    -0.228 NA
ATOM     31  C   TYR     1       4.820   1.717   8.791  1.00  0.00     0.289 C 
ATOM     32  O   TYR     1       5.502   0.704   8.606  1.00  0.00    -0.268 OA
BRANCH  31  33
ATOM     33  CA  TYR     1       5.046   2.956   7.930  1.00  0.00     0.385 C 
ATOM     34  N   TYR     1       5.101   2.524   6.524  1.00  0.00     0.626 N 
BRANCH  33  35
ATOM     35  CB  TYR     1       3.890   3.916   8.202  1.00  0.00     0.075 C 
BRANCH  35  36
ATOM     36  CG  TYR     1       4.335   5.208   8.906  1.00  0.00    -0.019 A 
ATOM     37  CD2 TYR     1       3.931   6.454   8.452  1.00  0.00    -0.002 A 
ATOM     38  CE2 TYR     1       4.234   7.594   9.181  1.00  0.00     0.027 A 
ATOM     39  CZ  TYR     1       4.953   7.470  10.369  1.00  0.00     0.131 A 
ATOM     40  CE1 TYR     1       5.388   6.228  10.795  1.00  0.00     0.027 A 
ATOM     41  OH  TYR     1       5.097   8.531  11.188  1.00  0.00    -0.190 OA
ATOM     42  CD1 TYR     1       5.086   5.088  10.065  1.00  0.00    -0.002 A 
ENDBRANCH  35  36
ENDBRANCH  33  35
ENDBRANCH  31  33
ENDBRANCH  25  30
ENDBRANCH  21  25
ENDBRANCH  16  18
ENDBRANCH   9  15
ENDBRANCH   7   9
ENDBRANCH   5   6
BRANCH   5  43
ATOM     43  CB  TYR     5      -7.036   0.174   8.963  1.00  0.00     0.060 C 
BRANCH  43  44
ATOM     44  CG  TYR     5      -8.193  -0.803   8.694  1.00  0.00    -0.020 A 
ATOM     45  CD2 TYR     5      -8.095  -2.136   9.072  1.00  0.00    -0.002 A 
ATOM     46  CE2 TYR     5      -9.150  -3.011   8.831  1.00  0.00     0.027 A 
ATOM     47  CZ  TYR     5     -10.303  -2.553   8.214  1.00  0.00     0.131 A 
ATOM     48  CE1 TYR     5     -10.417  -1.216   7.849  1.00  0.00     0.027 A 
ATOM     49  OH  TYR     5     -11.273  -3.421   7.852  1.00  0.00    -0.190 OA
ATOM     50  CD1 TYR     5      -9.354  -0.343   8.083  1.00  0.00    -0.002 A 
ENDBRANCH  43  44
ENDBRANCH   5  43
ENDBRANCH   3   5
ENDBRANCH   1   2
BRANCH   1  51
ATOM     51  CB  ARG     6      -7.062   2.227   4.568  1.00  0.00     0.036 C 
BRANCH  51  52
ATOM     52  CG  ARG     6      -8.326   1.473   4.987  1.00  0.00     0.029 C 
BRANCH  52  53
ATOM     53  CD  ARG     6      -8.776   0.531   3.875  1.00  0.00     0.145 C 
BRANCH  53  54
ATOM     54  NE  ARG     6      -9.412  -0.676   4.430  1.00  0.00    -0.083 NA
ATOM     55  CZ  ARG     6      -9.165  -1.940   4.039  1.00  0.00     0.782 C 
ATOM     56  NH2 ARG     6      -9.860  -2.957   4.552  1.00  0.00     0.063 N 
ATOM     57  NH1 ARG     6      -8.285  -2.183   3.074  1.00  0.00     0.063 N 
ENDBRANCH  53  54
ENDBRANCH  52  53
ENDBRANCH  51  52
ENDBRANCH   1  51
BRANCH   1  58
ATOM     58  C   ARG     6      -4.760   2.825   5.167  1.00  0.00     0.274 C 
ATOM     59  N   ASN     7      -5.264   4.055   5.130  1.00  0.00    -0.228 NA
ATOM     60  O   ARG     6      -3.558   2.552   5.171  1.00  0.00    -0.268 OA
BRANCH  59  61
ATOM     61  CA  ASN     7      -4.437   5.277   5.190  1.00  0.00     0.196 C 
BRANCH  61  62
ATOM     62  C   ASN     7      -4.023   5.612   6.636  1.00  0.00     0.275 C 
ATOM     63  N   PHE     8      -2.711   5.583   6.915  1.00  0.00    -0.228 NA
ATOM     64  O   ASN     7      -4.819   6.238   7.309  1.00  0.00    -0.268 OA
BRANCH  63  65
ATOM     65  CA  PHE     8      -2.113   5.956   8.220  1.00  0.00     0.191 C 
BRANCH  65  66
ATOM     66  CB  PHE     8      -0.623   6.250   8.000  1.00  0.00     0.060 C 
BRANCH  66  67
ATOM     67  CG  PHE     8       0.250   6.090   9.258  1.00  0.00    -0.020 A 
ATOM     68  CD1 PHE     8       0.623   4.823   9.686  1.00  0.00    -0.004 A 
ATOM     69  CE1 PHE     8       1.327   4.674  10.881  1.00  0.00    -0.000 A 
ATOM     70  CZ  PHE     8       1.663   5.792  11.626  1.00  0.00    -0.000 A 
ATOM     71  CE2 PHE     8       1.302   7.063  11.193  1.00  0.00    -0.000 A 
ATOM     72  CD2 PHE     8       0.598   7.213   9.998  1.00  0.00    -0.004 A 
ENDBRANCH  66  67
ENDBRANCH  65  66
BRANCH  65  73
ATOM     73  C   PHE     8      -2.822   7.117   8.955  1.00  0.00     0.275 C 
ATOM     74  N   TRP     9      -2.622   8.341   8.462  1.00  0.00    -0.228 NA
ATOM     75  O   PHE     8      -3.325   6.950  10.068  1.00  0.00    -0.268 OA
BRANCH  74  76
ATOM     76  CA  TRP     9      -3.336   9.529   8.990  1.00  0.00     0.191 C 
BRANCH  76  77
ATOM     77  CB  TRP     9      -2.471  10.777   8.745  1.00  0.00     0.062 C 
BRANCH  77  78
ATOM     78  CG  TRP     9      -1.080  10.677   9.370  1.00  0.00     0.001 A 
ATOM     79  CD1 TRP     9      -0.749  11.051  10.603  1.00  0.00     0.095 A 
ATOM     80  NE1 TRP     9       0.572  11.104  10.715  1.00  0.00    -0.244 NA
ATOM     81  CE2 TRP     9       1.129  10.748   9.567  1.00  0.00     0.081 A 
ATOM     82  CD2 TRP     9       0.106  10.479   8.671  1.00  0.00     0.015 A 
ATOM     83  CZ2 TRP     9       2.452  10.717   9.126  1.00  0.00     0.019 A 
ATOM     84  CE3 TRP     9       0.382  10.195   7.342  1.00  0.00     0.001 A 
ATOM     85  CZ3 TRP     9       1.700  10.178   6.897  1.00  0.00     0.000 A 
ATOM     86  CH2 TRP     9       2.733  10.421   7.801  1.00  0.00     0.002 A 
ENDBRANCH  77  78
ENDBRANCH  76  77
BRANCH  76  87
ATOM     87  C   TRP     9      -4.769   9.712   8.442  1.00  0.00     0.275 C 
ATOM     88  O   TRP     9      -5.028   9.481   7.265  1.00  0.00    -0.268 OA
ATOM     89  N   GLY    10      -5.704  10.033   9.335  1.00  0.00    -0.226 NA
BRANCH  89  90
ATOM     90  CA  GLY    10      -7.147  10.210   9.012  1.00  0.00     0.218 C 
BRANCH  90  91
ATOM     91  C   GLY    10      -8.040   8.970   9.177  1.00  0.00     0.277 C 
ATOM     92  N   CYS    11      -8.445   8.412   8.037  1.00  0.00    -0.228 NA
ATOM     93  O   GLY    10      -8.470   8.654  10.280  1.00  0.00    -0.268 OA
BRANCH  92  94
ATOM     94  CA  CYS    11      -9.288   7.204   7.897  1.00  0.00     0.198 C 
BRANCH  94  95
ATOM     95  C   CYS    11      -8.369   6.018   7.545  1.00  0.00     0.275 C 
ATOM     96  O   CYS    11      -8.020   5.860   6.380  1.00  0.00    -0.268 OA
ATOM     97  N   GLY    12      -8.178   5.125   8.505  1.00  0.00    -0.225 NA
BRANCH  97  98
ATOM     98  CA  GLY    12      -7.343   3.926   8.331  1.00  0.00     0.226 C 
BRANCH  98  99
ATOM     99  C   GLY    12      -6.134   4.043   9.287  1.00  0.00     0.211 C 
ATOM    100  O1  GLY    12      -6.199   4.933  10.173  1.00  0.00    -0.646 OA
ATOM    101  O2  GLY    12      -5.198   3.235   9.141  1.00  0.00    -0.646 OA
ENDBRANCH  98  99
ENDBRANCH  97  98
ENDBRANCH  94  95
BRANCH  94 102
ATOM    102  CB  CYS    11     -10.235   7.358   6.709  1.00  0.00     0.103 C 
ATOM    103  SG  CYS    11     -10.034   8.883   5.708  1.00  0.00    -0.080 SA
ENDBRANCH  94 102
ENDBRANCH  92  94
ENDBRANCH  90  91
ENDBRANCH  89  90
ENDBRANCH  76  87
ENDBRANCH  74  76
ENDBRANCH  65  73
ENDBRANCH  63  65
ENDBRANCH  61  62
BRANCH  61 104
ATOM    104  CB  ASN     7      -5.153   6.467   4.538  1.00  0.00     0.126 C 
BRANCH 104 105
ATOM    105  CG  ASN     7      -4.279   7.307   3.588  1.00  0.00     0.276 C 
ATOM    106  ND2 ASN     7      -3.912   6.719   2.472  1.00  0.00    -0.107 N 
ATOM    107  OD1 ASN     7      -3.787   8.394   3.861  1.00  0.00    -0.269 OA
ENDBRANCH 104 105
ENDBRANCH  61 104
ENDBRANCH  59  61
ENDBRANCH   1  58
TORSDOF 42
ENDMDL
MODEL 4
REMARK VINA RESULT:      -5.6     16.126     24.826
REMARK WARNING: 32 MAX_TORS EXCEEDED!!!
REMARK  42 active torsions:
REMARK  status: ('A' for Active; 'I' for Inactive)
REMARK    1  A    between atoms: CA_2  and  CB_3 
REMARK    2  A    between atoms: CA_2  and  C_11 
REMARK    3  A    between atoms: CB_3  and  CG_4 
REMARK       I    between atoms: C_11  and  N_13 
REMARK    4  A    between atoms: N_13  and  CA_14 
REMARK    5  A    between atoms: CA_14  and  CB_15 
REMARK    6  A    between atoms: CA_14  and  C_19 
REMARK    7  A    between atoms: CB_15  and  CG_16 
REMARK       I    between atoms: C_19  and  N_21 
REMARK    8  A    between atoms: CA_22  and  C_26 
REMARK       I    between atoms: C_26  and  N_28 
REMARK    9  A    between atoms: N_28  and  CA_29 
REMARK   10  A    between atoms: CA_29  and  C_35 
REMARK   11  A    between atoms: CA_29  and  CB_30 
REMARK   12  A    between atoms: CB_30  and  CG_31 
REMARK   13  A    between atoms: CG_31  and  CD_32 
REMARK       I    between atoms: C_35  and  N_37 
REMARK   14  A    between atoms: N_37  and  CA_38 
REMARK   15  A    between atoms: CA_38  and  CB_39 
REMARK   16  A    between atoms: CA_38  and  C_47 
REMARK   17  A    between atoms: CB_39  and  CG_40 
REMARK       I    between atoms: C_47  and  N_49 
REMARK   18  A    between atoms: N_49  and  CA_50 
REMARK   19  A    between atoms: CA_50  and  CB_51 
REMARK   20  A    between atoms: CA_50  and  C_58 
REMARK   21  A    between atoms: CB_51  and  CG_52 
REMARK   22  A    between atoms: CG_52  and  CD_53 
REMARK   23  A    between atoms: CD_53  and  NE_54 
REMARK       I    between atoms: C_58  and  N_60 
REMARK   24  A    between atoms: N_60  and  CA_61 
REMARK   25  A    between atoms: CA_61  and  C_66 
REMARK   26  A    between atoms: CA_61  and  CB_62 
REMARK   27  A    between atoms: CB_62  and  CG_63 
REMARK       I    between atoms: C_66  and  N_68 
REMARK   28  A    between atoms: N_68  and  CA_69 
REMARK   29  A    between atoms: CA_69  and  CB_70 
REMARK   30  A    between atoms: CA_69  and  C_77 
REMARK   31  A    between atoms: CB_70  and  CG_71 
REMARK       I    between atoms: C_77  and  N_79 
REMARK   32  A    between atoms: N_79  and  CA_80 
REMARK   33  A    between atoms: CA_80  and  CB_81 
REMARK   34  A    between atoms: CA_80  and  C_91 
REMARK   35  A    between atoms: CB_81  and  CG_82 
REMARK       I    between atoms: C_91  and  N_93 
REMARK   36  A    between atoms: N_93  and  CA_94 
REMARK   37  A    between atoms: CA_94  and  C_95 
REMARK       I    between atoms: C_95  and  N_97 
REMARK   38  A    between atoms: N_97  and  CA_98 
REMARK   39  A    between atoms: CA_98  and  C_101 
REMARK   40  A    between atoms: CA_98  and  CB_99 
REMARK       I    between atoms: C_101  and  N_103 
REMARK   41  A    between atoms: N_103  and  CA_104 
REMARK   42  A    between atoms: CA_104  and  C_105 
ROOT
ATOM      1  CA  ARG     6      -3.323 -17.207   8.265  1.00  0.00     0.186 C 
ENDROOT
BRANCH   1   2
ATOM      2  N   ARG     6      -3.734 -18.283   7.332  1.00  0.00    -0.229 NA
ATOM      3  C   TYR     5      -3.400 -19.566   7.524  1.00  0.00     0.275 C 
ATOM      4  O   TYR     5      -2.755 -19.939   8.504  1.00  0.00    -0.268 OA
BRANCH   3   5
ATOM      5  CA  TYR     5      -3.954 -20.591   6.521  1.00  0.00     0.191 C 
BRANCH   5   6
ATOM      6  N   TYR     5      -2.925 -21.531   6.006  1.00  0.00    -0.228 NA
ATOM      7  C   GLU     4      -2.641 -21.664   4.700  1.00  0.00     0.274 C 
ATOM      8  O   GLU     4      -3.106 -20.922   3.844  1.00  0.00    -0.268 OA
BRANCH   7   9
ATOM      9  CA  GLU     4      -1.449 -22.581   4.356  1.00  0.00     0.187 C 
BRANCH   9  10
ATOM     10  CB  GLU     4      -1.965 -23.935   3.842  1.00  0.00     0.045 C 
BRANCH  10  11
ATOM     11  CG  GLU     4      -3.479 -24.195   4.002  1.00  0.00     0.100 C 
BRANCH  11  12
ATOM     12  CD  GLU     4      -4.242 -24.299   2.681  1.00  0.00     0.185 C 
ATOM     13  OE1 GLU     4      -3.770 -23.681   1.691  1.00  0.00    -0.647 OA
ATOM     14  OE2 GLU     4      -5.460 -24.558   2.757  1.00  0.00    -0.647 OA
ENDBRANCH  11  12
ENDBRANCH  10  11
ENDBRANCH   9  10
BRANCH   9  15
ATOM     15  N   GLU     4      -0.552 -22.823   5.502  1.00  0.00    -0.229 NA
ATOM     16  C   PRO     3       0.564 -23.543   5.532  1.00  0.00     0.272 C 
ATOM     17  O   PRO     3       1.221 -23.815   4.526  1.00  0.00    -0.269 OA
BRANCH  16  18
ATOM     18  CA  PRO     3       1.269 -23.599   6.889  1.00  0.00     0.165 C 
ATOM     19  N   PRO     3       1.689 -22.287   7.425  1.00  0.00    -0.312 N 
ATOM     20  CD  PRO     3       1.434 -22.241   8.888  1.00  0.00     0.105 C 
ATOM     21  C   ASP     2       2.344 -21.356   6.707  1.00  0.00     0.257 C 
ATOM     22  CG  PRO     3       1.039 -23.681   9.249  1.00  0.00     0.027 C 
ATOM     23  CB  PRO     3       0.386 -24.209   7.975  1.00  0.00     0.034 C 
ATOM     24  O   ASP     2       2.823 -21.642   5.599  1.00  0.00    -0.270 OA
BRANCH  21  25
ATOM     25  CA  ASP     2       2.810 -20.053   7.396  1.00  0.00     0.195 C 
BRANCH  25  26
ATOM     26  CB  ASP     2       1.924 -18.800   7.172  1.00  0.00     0.132 C 
BRANCH  26  27
ATOM     27  CG  ASP     2       1.326 -18.320   8.508  1.00  0.00     0.188 C 
ATOM     28  OD2 ASP     2       2.154 -17.872   9.342  1.00  0.00    -0.647 OA
ATOM     29  OD1 ASP     2       0.278 -18.894   8.896  1.00  0.00    -0.647 OA
ENDBRANCH  26  27
ENDBRANCH  25  26
BRANCH  25  30
ATOM     30  N   ASP     2       4.124 -19.606   6.903  1.00  0.00    -0.228 NA
ATOM     31  C   TYR     1       5.104 -19.110   7.621  1.00  0.00     0.289 C 
ATOM     32  O   TYR     1       5.187 -19.042   8.852  1.00  0.00    -0.268 OA
BRANCH  31  33
ATOM     33  CA  TYR     1       6.227 -18.555   6.750  1.00  0.00     0.385 C 
ATOM     34  N   TYR     1       5.815 -18.692   5.343  1.00  0.00     0.626 N 
BRANCH  33  35
ATOM     35  CB  TYR     1       6.442 -17.100   7.156  1.00  0.00     0.075 C 
BRANCH  35  36
ATOM     36  CG  TYR     1       7.767 -16.873   7.900  1.00  0.00    -0.019 A 
ATOM     37  CD2 TYR     1       8.715 -17.878   8.011  1.00  0.00    -0.002 A 
ATOM     38  CE2 TYR     1       9.956 -17.609   8.567  1.00  0.00     0.027 A 
ATOM     39  CZ  TYR     1      10.233 -16.319   9.019  1.00  0.00     0.131 A 
ATOM     40  CE1 TYR     1       9.268 -15.331   8.943  1.00  0.00     0.027 A 
ATOM     41  OH  TYR     1      11.486 -15.984   9.389  1.00  0.00    -0.190 OA
ATOM     42  CD1 TYR     1       8.027 -15.600   8.387  1.00  0.00    -0.002 A 
ENDBRANCH  35  36
ENDBRANCH  33  35
ENDBRANCH  31  33
ENDBRANCH  25  30
ENDBRANCH  21  25
ENDBRANCH  16  18
ENDBRANCH   9  15
ENDBRANCH   7   9
ENDBRANCH   5   6
BRANCH   5  43
ATOM     43  CB  TYR     5      -5.128 -21.376   7.130  1.00  0.00     0.060 C 
BRANCH  43  44
ATOM     44  CG  TYR     5      -6.157 -21.802   6.069  1.00  0.00    -0.020 A 
ATOM     45  CD2 TYR     5      -6.453 -20.970   4.997  1.00  0.00    -0.002 A 
ATOM     46  CE2 TYR     5      -7.380 -21.368   4.038  1.00  0.00     0.027 A 
ATOM     47  CZ  TYR     5      -8.011 -22.597   4.152  1.00  0.00     0.131 A 
ATOM     48  CE1 TYR     5      -7.708 -23.442   5.213  1.00  0.00     0.027 A 
ATOM     49  OH  TYR     5      -9.011 -22.929   3.306  1.00  0.00    -0.190 OA
ATOM     50  CD1 TYR     5      -6.785 -23.038   6.177  1.00  0.00    -0.002 A 
ENDBRANCH  43  44
ENDBRANCH   5  43
ENDBRANCH   3   5
ENDBRANCH   1   2
BRANCH   1  51
ATOM     51  CB  ARG     6      -2.755 -15.986   7.549  1.00  0.00     0.036 C 
BRANCH  51  52
ATOM     52  CG  ARG     6      -1.385 -16.229   6.912  1.00  0.00     0.029 C 
BRANCH  52  53
ATOM     53  CD  ARG     6      -0.322 -15.372   7.594  1.00  0.00     0.145 C 
BRANCH  53  54
ATOM     54  NE  ARG     6      -0.560 -15.292   9.045  1.00  0.00    -0.083 NA
ATOM     55  CZ  ARG     6      -0.771 -14.158   9.740  1.00  0.00     0.782 C 
ATOM     56  NH2 ARG     6      -0.894 -14.191  11.069  1.00  0.00     0.063 N 
ATOM     57  NH1 ARG     6      -0.774 -12.983   9.121  1.00  0.00     0.063 N 
ENDBRANCH  53  54
ENDBRANCH  52  53
ENDBRANCH  51  52
ENDBRANCH   1  51
BRANCH   1  58
ATOM     58  C   ARG     6      -4.485 -16.707   9.132  1.00  0.00     0.274 C 
ATOM     59  N   ASN     7      -4.540 -15.391   9.320  1.00  0.00    -0.228 NA
ATOM     60  O   ARG     6      -5.281 -17.522   9.600  1.00  0.00    -0.268 OA
BRANCH  59  61
ATOM     61  CA  ASN     7      -5.639 -14.717  10.042  1.00  0.00     0.196 C 
BRANCH  61  62
ATOM     62  C   ASN     7      -6.224 -13.550   9.222  1.00  0.00     0.275 C 
ATOM     63  N   PHE     8      -6.005 -13.568   7.899  1.00  0.00    -0.228 NA
ATOM     64  O   ASN     7      -7.137 -12.924   9.724  1.00  0.00    -0.268 OA
BRANCH  63  65
ATOM     65  CA  PHE     8      -6.557 -12.585   6.935  1.00  0.00     0.191 C 
BRANCH  65  66
ATOM     66  CB  PHE     8      -5.383 -11.876   6.245  1.00  0.00     0.060 C 
BRANCH  66  67
ATOM     67  CG  PHE     8      -4.923 -10.582   6.942  1.00  0.00    -0.020 A 
ATOM     68  CD1 PHE     8      -4.325 -10.644   8.193  1.00  0.00    -0.004 A 
ATOM     69  CE1 PHE     8      -4.001  -9.467   8.867  1.00  0.00    -0.000 A 
ATOM     70  CZ  PHE     8      -4.265  -8.242   8.277  1.00  0.00    -0.000 A 
ATOM     71  CE2 PHE     8      -4.852  -8.177   7.018  1.00  0.00    -0.000 A 
ATOM     72  CD2 PHE     8      -5.175  -9.355   6.343  1.00  0.00    -0.004 A 
ENDBRANCH  66  67
ENDBRANCH  65  66
BRANCH  65  73
ATOM     73  C   PHE     8      -7.555 -13.167   5.908  1.00  0.00     0.275 C 
ATOM     74  N   TRP     9      -8.200 -14.276   6.271  1.00  0.00    -0.228 NA
ATOM     75  O   PHE     8      -7.561 -12.776   4.738  1.00  0.00    -0.268 OA
BRANCH  74  76
ATOM     76  CA  TRP     9      -9.274 -14.872   5.437  1.00  0.00     0.191 C 
BRANCH  76  77
ATOM     77  CB  TRP     9      -8.829 -16.272   4.982  1.00  0.00     0.062 C 
BRANCH  77  78
ATOM     78  CG  TRP     9      -8.754 -17.281   6.127  1.00  0.00     0.001 A 
ATOM     79  CD1 TRP     9      -7.842 -17.297   7.095  1.00  0.00     0.095 A 
ATOM     80  NE1 TRP     9      -7.891 -18.457   7.738  1.00  0.00    -0.244 NA
ATOM     81  CE2 TRP     9      -8.847 -19.212   7.217  1.00  0.00     0.081 A 
ATOM     82  CD2 TRP     9      -9.418 -18.503   6.172  1.00  0.00     0.015 A 
ATOM     83  CZ2 TRP     9      -9.251 -20.525   7.455  1.00  0.00     0.019 A 
ATOM     84  CE3 TRP     9     -10.372 -19.088   5.353  1.00  0.00     0.001 A 
ATOM     85  CZ3 TRP     9     -10.767 -20.402   5.581  1.00  0.00     0.000 A 
ATOM     86  CH2 TRP     9     -10.215 -21.110   6.647  1.00  0.00     0.002 A 
ENDBRANCH  77  78
ENDBRANCH  76  77
BRANCH  76  87
ATOM     87  C   TRP     9     -10.664 -14.906   6.111  1.00  0.00     0.275 C 
ATOM     88  O   TRP     9     -11.608 -15.484   5.579  1.00  0.00    -0.268 OA
ATOM     89  N   GLY    10     -10.743 -14.367   7.326  1.00  0.00    -0.226 NA
BRANCH  89  90
ATOM     90  CA  GLY    10     -11.980 -14.341   8.154  1.00  0.00     0.218 C 
BRANCH  90  91
ATOM     91  C   GLY    10     -12.151 -13.132   9.088  1.00  0.00     0.277 C 
ATOM     92  N   CYS    11     -12.513 -13.431  10.335  1.00  0.00    -0.228 NA
ATOM     93  O   GLY    10     -12.120 -11.991   8.643  1.00  0.00    -0.268 OA
BRANCH  92  94
ATOM     94  CA  CYS    11     -12.725 -12.474  11.444  1.00  0.00     0.198 C 
BRANCH  94  95
ATOM     95  C   CYS    11     -11.762 -12.847  12.588  1.00  0.00     0.275 C 
ATOM     96  O   CYS    11     -12.099 -13.706  13.395  1.00  0.00    -0.268 OA
ATOM     97  N   GLY    12     -10.704 -12.063  12.737  1.00  0.00    -0.225 NA
BRANCH  97  98
ATOM     98  CA  GLY    12      -9.695 -12.268  13.788  1.00  0.00     0.226 C 
BRANCH  98  99
ATOM     99  C   GLY    12      -8.453 -12.919  13.137  1.00  0.00     0.211 C 
ATOM    100  O1  GLY    12      -7.442 -12.186  12.994  1.00  0.00    -0.646 OA
ATOM    101  O2  GLY    12      -8.522 -14.124  12.832  1.00  0.00    -0.646 OA
ENDBRANCH  98  99
ENDBRANCH  97  98
ENDBRANCH  94  95
BRANCH  94 102
ATOM    102  CB  CYS    11     -14.130 -12.639  12.019  1.00  0.00     0.103 C 
ATOM    103  SG  CYS    11     -15.137 -14.000  11.313  1.00  0.00    -0.080 SA
ENDBRANCH  94 102
ENDBRANCH  92  94
ENDBRANCH  90  91
ENDBRANCH  89  90
ENDBRANCH  76  87
ENDBRANCH  74  76
ENDBRANCH  65  73
ENDBRANCH  63  65
ENDBRANCH  61  62
BRANCH  61 104
ATOM    104  CB  ASN     7      -5.183 -14.236  11.425  1.00  0.00     0.126 C 
BRANCH 104 105
ATOM    105  CG  ASN     7      -4.976 -15.355  12.463  1.00  0.00     0.276 C 
ATOM    106  ND2 ASN     7      -3.730 -15.626  12.779  1.00  0.00    -0.107 N 
ATOM    107  OD1 ASN     7      -5.856 -16.095  12.884  1.00  0.00    -0.269 OA
ENDBRANCH 104 105
ENDBRANCH  61 104
ENDBRANCH  59  61
ENDBRANCH   1  58
TORSDOF 42
ENDMDL
MODEL 5
REMARK VINA RESULT:      -5.5     15.988     24.931
REMARK WARNING: 32 MAX_TORS EXCEEDED!!!
REMARK  42 active torsions:
REMARK  status: ('A' for Active; 'I' for Inactive)
REMARK    1  A    between atoms: CA_2  and  CB_3 
REMARK    2  A    between atoms: CA_2  and  C_11 
REMARK    3  A    between atoms: CB_3  and  CG_4 
REMARK       I    between atoms: C_11  and  N_13 
REMARK    4  A    between atoms: N_13  and  CA_14 
REMARK    5  A    between atoms: CA_14  and  CB_15 
REMARK    6  A    between atoms: CA_14  and  C_19 
REMARK    7  A    between atoms: CB_15  and  CG_16 
REMARK       I    between atoms: C_19  and  N_21 
REMARK    8  A    between atoms: CA_22  and  C_26 
REMARK       I    between atoms: C_26  and  N_28 
REMARK    9  A    between atoms: N_28  and  CA_29 
REMARK   10  A    between atoms: CA_29  and  C_35 
REMARK   11  A    between atoms: CA_29  and  CB_30 
REMARK   12  A    between atoms: CB_30  and  CG_31 
REMARK   13  A    between atoms: CG_31  and  CD_32 
REMARK       I    between atoms: C_35  and  N_37 
REMARK   14  A    between atoms: N_37  and  CA_38 
REMARK   15  A    between atoms: CA_38  and  CB_39 
REMARK   16  A    between atoms: CA_38  and  C_47 
REMARK   17  A    between atoms: CB_39  and  CG_40 
REMARK       I    between atoms: C_47  and  N_49 
REMARK   18  A    between atoms: N_49  and  CA_50 
REMARK   19  A    between atoms: CA_50  and  CB_51 
REMARK   20  A    between atoms: CA_50  and  C_58 
REMARK   21  A    between atoms: CB_51  and  CG_52 
REMARK   22  A    between atoms: CG_52  and  CD_53 
REMARK   23  A    between atoms: CD_53  and  NE_54 
REMARK       I    between atoms: C_58  and  N_60 
REMARK   24  A    between atoms: N_60  and  CA_61 
REMARK   25  A    between atoms: CA_61  and  C_66 
REMARK   26  A    between atoms: CA_61  and  CB_62 
REMARK   27  A    between atoms: CB_62  and  CG_63 
REMARK       I    between atoms: C_66  and  N_68 
REMARK   28  A    between atoms: N_68  and  CA_69 
REMARK   29  A    between atoms: CA_69  and  CB_70 
REMARK   30  A    between atoms: CA_69  and  C_77 
REMARK   31  A    between atoms: CB_70  and  CG_71 
REMARK       I    between atoms: C_77  and  N_79 
REMARK   32  A    between atoms: N_79  and  CA_80 
REMARK   33  A    between atoms: CA_80  and  CB_81 
REMARK   34  A    between atoms: CA_80  and  C_91 
REMARK   35  A    between atoms: CB_81  and  CG_82 
REMARK       I    between atoms: C_91  and  N_93 
REMARK   36  A    between atoms: N_93  and  CA_94 
REMARK   37  A    between atoms: CA_94  and  C_95 
REMARK       I    between atoms: C_95  and  N_97 
REMARK   38  A    between atoms: N_97  and  CA_98 
REMARK   39  A    between atoms: CA_98  and  C_101 
REMARK   40  A    between atoms: CA_98  and  CB_99 
REMARK       I    between atoms: C_101  and  N_103 
REMARK   41  A    between atoms: N_103  and  CA_104 
REMARK   42  A    between atoms: CA_104  and  C_105 
ROOT
ATOM      1  CA  ARG     6      -4.275 -17.481   8.187  1.00  0.00     0.186 C 
ENDROOT
BRANCH   1   2
ATOM      2  N   ARG     6      -4.479 -18.496   7.128  1.00  0.00    -0.229 NA
ATOM      3  C   TYR     5      -4.351 -19.810   7.358  1.00  0.00     0.275 C 
ATOM      4  O   TYR     5      -4.084 -20.260   8.473  1.00  0.00    -0.268 OA
BRANCH   3   5
ATOM      5  CA  TYR     5      -4.663 -20.760   6.190  1.00  0.00     0.191 C 
BRANCH   5   6
ATOM      6  N   TYR     5      -3.603 -21.773   5.951  1.00  0.00    -0.228 NA
ATOM      7  C   GLU     4      -2.839 -21.789   4.847  1.00  0.00     0.274 C 
ATOM      8  O   GLU     4      -2.859 -20.889   4.017  1.00  0.00    -0.268 OA
BRANCH   7   9
ATOM      9  CA  GLU     4      -1.696 -22.824   4.830  1.00  0.00     0.187 C 
BRANCH   9  10
ATOM     10  CB  GLU     4      -2.277 -24.241   4.693  1.00  0.00     0.045 C 
BRANCH  10  11
ATOM     11  CG  GLU     4      -1.773 -25.074   3.494  1.00  0.00     0.100 C 
BRANCH  11  12
ATOM     12  CD  GLU     4      -1.716 -24.305   2.174  1.00  0.00     0.185 C 
ATOM     13  OE1 GLU     4      -0.588 -23.897   1.791  1.00  0.00    -0.647 OA
ATOM     14  OE2 GLU     4      -2.764 -23.732   1.813  1.00  0.00    -0.647 OA
ENDBRANCH  11  12
ENDBRANCH  10  11
ENDBRANCH   9  10
BRANCH   9  15
ATOM     15  N   GLU     4      -0.849 -22.777   6.037  1.00  0.00    -0.229 NA
ATOM     16  C   PRO     3       0.268 -23.452   6.282  1.00  0.00     0.272 C 
ATOM     17  O   PRO     3       0.970 -23.942   5.396  1.00  0.00    -0.269 OA
BRANCH  16  18
ATOM     18  CA  PRO     3       0.912 -23.177   7.642  1.00  0.00     0.165 C 
ATOM     19  N   PRO     3       1.160 -21.750   7.935  1.00  0.00    -0.312 N 
ATOM     20  CD  PRO     3       0.835 -21.468   9.357  1.00  0.00     0.105 C 
ATOM     21  C   ASP     2       1.741 -20.895   7.073  1.00  0.00     0.257 C 
ATOM     22  CG  PRO     3       0.584 -22.854   9.971  1.00  0.00     0.027 C 
ATOM     23  CB  PRO     3       0.053 -23.678   8.801  1.00  0.00     0.034 C 
ATOM     24  O   ASP     2       2.298 -21.321   6.050  1.00  0.00    -0.270 OA
BRANCH  21  25
ATOM     25  CA  ASP     2       2.029 -19.444   7.518  1.00  0.00     0.195 C 
BRANCH  25  26
ATOM     26  CB  ASP     2       0.963 -18.383   7.142  1.00  0.00     0.132 C 
BRANCH  26  27
ATOM     27  CG  ASP     2      -0.269 -19.059   6.512  1.00  0.00     0.188 C 
ATOM     28  OD2 ASP     2      -0.541 -18.703   5.337  1.00  0.00    -0.647 OA
ATOM     29  OD1 ASP     2      -1.184 -19.409   7.298  1.00  0.00    -0.647 OA
ENDBRANCH  26  27
ENDBRANCH  25  26
BRANCH  25  30
ATOM     30  N   ASP     2       3.249 -18.905   6.893  1.00  0.00    -0.228 NA
ATOM     31  C   TYR     1       4.327 -18.483   7.512  1.00  0.00     0.289 C 
ATOM     32  O   TYR     1       4.599 -18.574   8.713  1.00  0.00    -0.268 OA
BRANCH  31  33
ATOM     33  CA  TYR     1       5.299 -17.793   6.560  1.00  0.00     0.385 C 
ATOM     34  N   TYR     1       4.512 -17.197   5.467  1.00  0.00     0.626 N 
BRANCH  33  35
ATOM     35  CB  TYR     1       6.062 -16.746   7.368  1.00  0.00     0.075 C 
BRANCH  35  36
ATOM     36  CG  TYR     1       7.547 -17.095   7.553  1.00  0.00    -0.019 A 
ATOM     37  CD2 TYR     1       8.342 -16.411   8.459  1.00  0.00    -0.002 A 
ATOM     38  CE2 TYR     1       9.641 -16.832   8.704  1.00  0.00     0.027 A 
ATOM     39  CZ  TYR     1      10.134 -17.945   8.024  1.00  0.00     0.131 A 
ATOM     40  CE1 TYR     1       9.349 -18.597   7.091  1.00  0.00     0.027 A 
ATOM     41  OH  TYR     1      11.318 -18.486   8.378  1.00  0.00    -0.190 OA
ATOM     42  CD1 TYR     1       8.051 -18.176   6.846  1.00  0.00    -0.002 A 
ENDBRANCH  35  36
ENDBRANCH  33  35
ENDBRANCH  31  33
ENDBRANCH  25  30
ENDBRANCH  21  25
ENDBRANCH  16  18
ENDBRANCH   9  15
ENDBRANCH   7   9
ENDBRANCH   5   6
BRANCH   5  43
ATOM     43  CB  TYR     5      -6.020 -21.454   6.395  1.00  0.00     0.060 C 
BRANCH  43  44
ATOM     44  CG  TYR     5      -6.550 -22.093   5.100  1.00  0.00    -0.020 A 
ATOM     45  CD2 TYR     5      -6.361 -21.467   3.874  1.00  0.00    -0.002 A 
ATOM     46  CE2 TYR     5      -6.837 -22.057   2.707  1.00  0.00     0.027 A 
ATOM     47  CZ  TYR     5      -7.502 -23.272   2.765  1.00  0.00     0.131 A 
ATOM     48  CE1 TYR     5      -7.679 -23.913   3.986  1.00  0.00     0.027 A 
ATOM     49  OH  TYR     5      -8.087 -23.781   1.660  1.00  0.00    -0.190 OA
ATOM     50  CD1 TYR     5      -7.209 -23.316   5.156  1.00  0.00    -0.002 A 
ENDBRANCH  43  44
ENDBRANCH   5  43
ENDBRANCH   3   5
ENDBRANCH   1   2
BRANCH   1  51
ATOM     51  CB  ARG     6      -3.370 -16.335   7.744  1.00  0.00     0.036 C 
BRANCH  51  52
ATOM     52  CG  ARG     6      -1.999 -16.338   8.425  1.00  0.00     0.029 C 
BRANCH  52  53
ATOM     53  CD  ARG     6      -1.086 -15.296   7.784  1.00  0.00     0.145 C 
BRANCH  53  54
ATOM     54  NE  ARG     6      -0.608 -14.327   8.784  1.00  0.00    -0.083 NA
ATOM     55  CZ  ARG     6      -1.249 -13.201   9.150  1.00  0.00     0.782 C 
ATOM     56  NH2 ARG     6      -0.684 -12.348  10.008  1.00  0.00     0.063 N 
ATOM     57  NH1 ARG     6      -2.413 -12.881   8.596  1.00  0.00     0.063 N 
ENDBRANCH  53  54
ENDBRANCH  52  53
ENDBRANCH  51  52
ENDBRANCH   1  51
BRANCH   1  58
ATOM     58  C   ARG     6      -5.592 -16.845   8.651  1.00  0.00     0.274 C 
ATOM     59  N   ASN     7      -5.590 -15.518   8.745  1.00  0.00    -0.228 NA
ATOM     60  O   ARG     6      -6.552 -17.572   8.910  1.00  0.00    -0.268 OA
BRANCH  59  61
ATOM     61  CA  ASN     7      -6.790 -14.724   9.080  1.00  0.00     0.196 C 
BRANCH  61  62
ATOM     62  C   ASN     7      -7.119 -13.700   7.976  1.00  0.00     0.275 C 
ATOM     63  N   PHE     8      -7.092 -14.142   6.710  1.00  0.00    -0.228 NA
ATOM     64  O   ASN     7      -7.741 -12.709   8.307  1.00  0.00    -0.268 OA
BRANCH  63  65
ATOM     65  CA  PHE     8      -7.461 -13.335   5.522  1.00  0.00     0.191 C 
BRANCH  65  66
ATOM     66  CB  PHE     8      -6.182 -12.707   4.951  1.00  0.00     0.060 C 
BRANCH  66  67
ATOM     67  CG  PHE     8      -5.949 -11.244   5.372  1.00  0.00    -0.020 A 
ATOM     68  CD1 PHE     8      -5.097 -10.955   6.429  1.00  0.00    -0.004 A 
ATOM     69  CE1 PHE     8      -4.966  -9.640   6.875  1.00  0.00    -0.000 A 
ATOM     70  CZ  PHE     8      -5.675  -8.627   6.249  1.00  0.00    -0.000 A 
ATOM     71  CE2 PHE     8      -6.519  -8.913   5.181  1.00  0.00    -0.000 A 
ATOM     72  CD2 PHE     8      -6.651 -10.228   4.736  1.00  0.00    -0.004 A 
ENDBRANCH  66  67
ENDBRANCH  65  66
BRANCH  65  73
ATOM     73  C   PHE     8      -8.257 -14.097   4.437  1.00  0.00     0.275 C 
ATOM     74  N   TRP     9      -9.508 -14.437   4.749  1.00  0.00    -0.228 NA
ATOM     75  O   PHE     8      -7.687 -14.578   3.455  1.00  0.00    -0.268 OA
BRANCH  74  76
ATOM     76  CA  TRP     9     -10.424 -15.060   3.761  1.00  0.00     0.191 C 
BRANCH  76  77
ATOM     77  CB  TRP     9     -11.532 -15.811   4.517  1.00  0.00     0.062 C 
BRANCH  77  78
ATOM     78  CG  TRP     9     -11.103 -17.200   4.989  1.00  0.00     0.001 A 
ATOM     79  CD1 TRP     9     -10.514 -17.484   6.147  1.00  0.00     0.095 A 
ATOM     80  NE1 TRP     9     -10.018 -18.714   6.109  1.00  0.00    -0.244 NA
ATOM     81  CE2 TRP     9     -10.290 -19.264   4.935  1.00  0.00     0.081 A 
ATOM     82  CD2 TRP     9     -10.972 -18.324   4.180  1.00  0.00     0.015 A 
ATOM     83  CZ2 TRP     9      -9.930 -20.480   4.353  1.00  0.00     0.019 A 
ATOM     84  CE3 TRP     9     -11.287 -18.572   2.852  1.00  0.00     0.001 A 
ATOM     85  CZ3 TRP     9     -10.917 -19.778   2.266  1.00  0.00     0.000 A 
ATOM     86  CH2 TRP     9     -10.254 -20.737   3.030  1.00  0.00     0.002 A 
ENDBRANCH  77  78
ENDBRANCH  76  77
BRANCH  76  87
ATOM     87  C   TRP     9     -11.009 -14.078   2.721  1.00  0.00     0.275 C 
ATOM     88  O   TRP     9     -10.665 -14.128   1.544  1.00  0.00    -0.268 OA
ATOM     89  N   GLY    10     -11.966 -13.260   3.157  1.00  0.00    -0.226 NA
BRANCH  89  90
ATOM     90  CA  GLY    10     -12.682 -12.275   2.301  1.00  0.00     0.218 C 
BRANCH  90  91
ATOM     91  C   GLY    10     -13.104 -10.961   2.979  1.00  0.00     0.277 C 
ATOM     92  N   CYS    11     -12.190  -9.993   2.949  1.00  0.00    -0.228 NA
ATOM     93  O   GLY    10     -14.136 -10.903   3.637  1.00  0.00    -0.268 OA
BRANCH  92  94
ATOM     94  CA  CYS    11     -12.333  -8.627   3.500  1.00  0.00     0.198 C 
BRANCH  94  95
ATOM     95  C   CYS    11     -11.624  -7.648   2.544  1.00  0.00     0.275 C 
ATOM     96  O   CYS    11     -11.198  -8.066   1.473  1.00  0.00    -0.268 OA
ATOM     97  N   GLY    12     -11.347  -6.451   3.037  1.00  0.00    -0.225 NA
BRANCH  97  98
ATOM     98  CA  GLY    12     -10.659  -5.404   2.264  1.00  0.00     0.226 C 
BRANCH  98  99
ATOM     99  C   GLY    12      -9.549  -4.803   3.157  1.00  0.00     0.211 C 
ATOM    100  O1  GLY    12      -9.711  -4.898   4.400  1.00  0.00    -0.646 OA
ATOM    101  O2  GLY    12      -8.560  -4.300   2.592  1.00  0.00    -0.646 OA
ENDBRANCH  98  99
ENDBRANCH  97  98
ENDBRANCH  94  95
BRANCH  94 102
ATOM    102  CB  CYS    11     -11.590  -8.516   4.829  1.00  0.00     0.103 C 
ATOM    103  SG  CYS    11     -12.635  -8.400   6.332  1.00  0.00    -0.080 SA
ENDBRANCH  94 102
ENDBRANCH  92  94
ENDBRANCH  90  91
ENDBRANCH  89  90
ENDBRANCH  76  87
ENDBRANCH  74  76
ENDBRANCH  65  73
ENDBRANCH  63  65
ENDBRANCH  61  62
BRANCH  61 104
ATOM    104  CB  ASN     7      -6.636 -14.030  10.440  1.00  0.00     0.126 C 
BRANCH 104 105
ATOM    105  CG  ASN     7      -7.806 -14.252  11.416  1.00  0.00     0.276 C 
ATOM    106  ND2 ASN     7      -7.629 -15.185  12.324  1.00  0.00    -0.107 N 
ATOM    107  OD1 ASN     7      -8.916 -13.746  11.311  1.00  0.00    -0.269 OA
ENDBRANCH 104 105
ENDBRANCH  61 104
ENDBRANCH  59  61
ENDBRANCH   1  58
TORSDOF 42
ENDMDL
MODEL 6
REMARK VINA RESULT:      -5.5      2.881      7.175
REMARK WARNING: 32 MAX_TORS EXCEEDED!!!
REMARK  42 active torsions:
REMARK  status: ('A' for Active; 'I' for Inactive)
REMARK    1  A    between atoms: CA_2  and  CB_3 
REMARK    2  A    between atoms: CA_2  and  C_11 
REMARK    3  A    between atoms: CB_3  and  CG_4 
REMARK       I    between atoms: C_11  and  N_13 
REMARK    4  A    between atoms: N_13  and  CA_14 
REMARK    5  A    between atoms: CA_14  and  CB_15 
REMARK    6  A    between atoms: CA_14  and  C_19 
REMARK    7  A    between atoms: CB_15  and  CG_16 
REMARK       I    between atoms: C_19  and  N_21 
REMARK    8  A    between atoms: CA_22  and  C_26 
REMARK       I    between atoms: C_26  and  N_28 
REMARK    9  A    between atoms: N_28  and  CA_29 
REMARK   10  A    between atoms: CA_29  and  C_35 
REMARK   11  A    between atoms: CA_29  and  CB_30 
REMARK   12  A    between atoms: CB_30  and  CG_31 
REMARK   13  A    between atoms: CG_31  and  CD_32 
REMARK       I    between atoms: C_35  and  N_37 
REMARK   14  A    between atoms: N_37  and  CA_38 
REMARK   15  A    between atoms: CA_38  and  CB_39 
REMARK   16  A    between atoms: CA_38  and  C_47 
REMARK   17  A    between atoms: CB_39  and  CG_40 
REMARK       I    between atoms: C_47  and  N_49 
REMARK   18  A    between atoms: N_49  and  CA_50 
REMARK   19  A    between atoms: CA_50  and  CB_51 
REMARK   20  A    between atoms: CA_50  and  C_58 
REMARK   21  A    between atoms: CB_51  and  CG_52 
REMARK   22  A    between atoms: CG_52  and  CD_53 
REMARK   23  A    between atoms: CD_53  and  NE_54 
REMARK       I    between atoms: C_58  and  N_60 
REMARK   24  A    between atoms: N_60  and  CA_61 
REMARK   25  A    between atoms: CA_61  and  C_66 
REMARK   26  A    between atoms: CA_61  and  CB_62 
REMARK   27  A    between atoms: CB_62  and  CG_63 
REMARK       I    between atoms: C_66  and  N_68 
REMARK   28  A    between atoms: N_68  and  CA_69 
REMARK   29  A    between atoms: CA_69  and  CB_70 
REMARK   30  A    between atoms: CA_69  and  C_77 
REMARK   31  A    between atoms: CB_70  and  CG_71 
REMARK       I    between atoms: C_77  and  N_79 
REMARK   32  A    between atoms: N_79  and  CA_80 
REMARK   33  A    between atoms: CA_80  and  CB_81 
REMARK   34  A    between atoms: CA_80  and  C_91 
REMARK   35  A    between atoms: CB_81  and  CG_82 
REMARK       I    between atoms: C_91  and  N_93 
REMARK   36  A    between atoms: N_93  and  CA_94 
REMARK   37  A    between atoms: CA_94  and  C_95 
REMARK       I    between atoms: C_95  and  N_97 
REMARK   38  A    between atoms: N_97  and  CA_98 
REMARK   39  A    between atoms: CA_98  and  C_101 
REMARK   40  A    between atoms: CA_98  and  CB_99 
REMARK       I    between atoms: C_101  and  N_103 
REMARK   41  A    between atoms: N_103  and  CA_104 
REMARK   42  A    between atoms: CA_104  and  C_105 
ROOT
ATOM      1  CA  ARG     6      -3.304   3.837   8.005  1.00  0.00     0.186 C 
ENDROOT
BRANCH   1   2
ATOM      2  N   ARG     6      -4.340   2.849   7.623  1.00  0.00    -0.229 NA
ATOM      3  C   TYR     5      -4.407   2.315   6.397  1.00  0.00     0.275 C 
ATOM      4  O   TYR     5      -3.592   2.589   5.515  1.00  0.00    -0.268 OA
BRANCH   3   5
ATOM      5  CA  TYR     5      -5.485   1.247   6.155  1.00  0.00     0.191 C 
BRANCH   5   6
ATOM      6  N   TYR     5      -6.412   1.070   7.302  1.00  0.00    -0.228 NA
ATOM      7  C   GLU     4      -6.428  -0.033   8.069  1.00  0.00     0.274 C 
ATOM      8  O   GLU     4      -5.588  -0.917   7.971  1.00  0.00    -0.268 OA
BRANCH   7   9
ATOM      9  CA  GLU     4      -7.356   0.013   9.301  1.00  0.00     0.187 C 
BRANCH   9  10
ATOM     10  CB  GLU     4      -7.737  -1.416   9.720  1.00  0.00     0.045 C 
BRANCH  10  11
ATOM     11  CG  GLU     4      -7.799  -1.689  11.239  1.00  0.00     0.100 C 
BRANCH  11  12
ATOM     12  CD  GLU     4      -6.445  -1.623  11.946  1.00  0.00     0.185 C 
ATOM     13  OE1 GLU     4      -6.295  -0.733  12.823  1.00  0.00    -0.647 OA
ATOM     14  OE2 GLU     4      -5.467  -2.089  11.328  1.00  0.00    -0.647 OA
ENDBRANCH  11  12
ENDBRANCH  10  11
ENDBRANCH   9  10
BRANCH   9  15
ATOM     15  N   GLU     4      -8.594   0.782   9.070  1.00  0.00    -0.229 NA
ATOM     16  C   PRO     3      -9.466   0.653   8.077  1.00  0.00     0.272 C 
ATOM     17  O   PRO     3      -9.574  -0.372   7.401  1.00  0.00    -0.269 OA
BRANCH  16  18
ATOM     18  CA  PRO     3     -10.656   1.613   8.124  1.00  0.00     0.165 C 
ATOM     19  N   PRO     3     -10.785   2.501   6.949  1.00  0.00    -0.312 N 
ATOM     20  CD  PRO     3     -12.216   2.623   6.570  1.00  0.00     0.105 C 
ATOM     21  C   ASP     2      -9.765   3.204   6.423  1.00  0.00     0.257 C 
ATOM     22  CG  PRO     3     -12.972   1.933   7.716  1.00  0.00     0.027 C 
ATOM     23  CB  PRO     3     -11.991   0.876   8.214  1.00  0.00     0.034 C 
ATOM     24  O   ASP     2      -8.692   3.306   7.037  1.00  0.00    -0.270 OA
BRANCH  21  25
ATOM     25  CA  ASP     2     -10.034   4.168   5.246  1.00  0.00     0.195 C 
BRANCH  25  26
ATOM     26  CB  ASP     2      -9.647   3.657   3.834  1.00  0.00     0.132 C 
BRANCH  26  27
ATOM     27  CG  ASP     2     -10.886   3.103   3.105  1.00  0.00     0.188 C 
ATOM     28  OD2 ASP     2     -11.140   1.890   3.314  1.00  0.00    -0.647 OA
ATOM     29  OD1 ASP     2     -11.177   3.634   2.004  1.00  0.00    -0.647 OA
ENDBRANCH  26  27
ENDBRANCH  25  26
BRANCH  25  30
ATOM     30  N   ASP     2      -9.252   5.411   5.359  1.00  0.00    -0.228 NA
ATOM     31  C   TYR     1      -9.583   6.488   6.033  1.00  0.00     0.289 C 
ATOM     32  O   TYR     1     -10.532   6.638   6.809  1.00  0.00    -0.268 OA
BRANCH  31  33
ATOM     33  CA  TYR     1      -8.641   7.653   5.746  1.00  0.00     0.385 C 
ATOM     34  N   TYR     1      -9.277   8.882   6.251  1.00  0.00     0.626 N 
BRANCH  33  35
ATOM     35  CB  TYR     1      -7.317   7.351   6.445  1.00  0.00     0.075 C 
BRANCH  35  36
ATOM     36  CG  TYR     1      -6.175   7.048   5.463  1.00  0.00    -0.019 A 
ATOM     37  CD2 TYR     1      -6.097   5.834   4.798  1.00  0.00    -0.002 A 
ATOM     38  CE2 TYR     1      -5.136   5.637   3.818  1.00  0.00     0.027 A 
ATOM     39  CZ  TYR     1      -4.248   6.670   3.518  1.00  0.00     0.131 A 
ATOM     40  CE1 TYR     1      -4.306   7.863   4.214  1.00  0.00     0.027 A 
ATOM     41  OH  TYR     1      -3.432   6.573   2.449  1.00  0.00    -0.190 OA
ATOM     42  CD1 TYR     1      -5.267   8.061   5.194  1.00  0.00    -0.002 A 
ENDBRANCH  35  36
ENDBRANCH  33  35
ENDBRANCH  31  33
ENDBRANCH  25  30
ENDBRANCH  21  25
ENDBRANCH  16  18
ENDBRANCH   9  15
ENDBRANCH   7   9
ENDBRANCH   5   6
BRANCH   5  43
ATOM     43  CB  TYR     5      -6.283   1.552   4.875  1.00  0.00     0.060 C 
BRANCH  43  44
ATOM     44  CG  TYR     5      -6.877   0.282   4.242  1.00  0.00    -0.020 A 
ATOM     45  CD2 TYR     5      -8.252   0.118   4.143  1.00  0.00    -0.002 A 
ATOM     46  CE2 TYR     5      -8.780  -1.030   3.562  1.00  0.00     0.027 A 
ATOM     47  CZ  TYR     5      -7.933  -2.015   3.079  1.00  0.00     0.131 A 
ATOM     48  CE1 TYR     5      -6.554  -1.851   3.158  1.00  0.00     0.027 A 
ATOM     49  OH  TYR     5      -8.435  -3.191   2.642  1.00  0.00    -0.190 OA
ATOM     50  CD1 TYR     5      -6.028  -0.703   3.749  1.00  0.00    -0.002 A 
ENDBRANCH  43  44
ENDBRANCH   5  43
ENDBRANCH   3   5
ENDBRANCH   1   2
BRANCH   1  51
ATOM     51  CB  ARG     6      -3.858   4.987   8.840  1.00  0.00     0.036 C 
BRANCH  51  52
ATOM     52  CG  ARG     6      -5.380   5.123   8.764  1.00  0.00     0.029 C 
BRANCH  52  53
ATOM     53  CD  ARG     6      -5.975   5.231  10.165  1.00  0.00     0.145 C 
BRANCH  53  54
ATOM     54  NE  ARG     6      -7.243   4.489  10.259  1.00  0.00    -0.083 NA
ATOM     55  CZ  ARG     6      -8.469   5.010  10.062  1.00  0.00     0.782 C 
ATOM     56  NH2 ARG     6      -9.561   4.266  10.254  1.00  0.00     0.063 N 
ATOM     57  NH1 ARG     6      -8.611   6.295   9.757  1.00  0.00     0.063 N 
ENDBRANCH  53  54
ENDBRANCH  52  53
ENDBRANCH  51  52
ENDBRANCH   1  51
BRANCH   1  58
ATOM     58  C   ARG     6      -2.168   3.209   8.822  1.00  0.00     0.274 C 
ATOM     59  N   ASN     7      -2.419   3.028  10.116  1.00  0.00    -0.228 NA
ATOM     60  O   ARG     6      -1.112   2.916   8.259  1.00  0.00    -0.268 OA
BRANCH  59  61
ATOM     61  CA  ASN     7      -1.487   2.350  11.040  1.00  0.00     0.196 C 
BRANCH  61  62
ATOM     62  C   ASN     7      -0.226   3.198  11.297  1.00  0.00     0.275 C 
ATOM     63  N   PHE     8       0.905   2.805  10.691  1.00  0.00    -0.228 NA
ATOM     64  O   ASN     7      -0.394   4.338  11.685  1.00  0.00    -0.268 OA
BRANCH  63  65
ATOM     65  CA  PHE     8       2.195   3.535  10.745  1.00  0.00     0.191 C 
BRANCH  65  66
ATOM     66  CB  PHE     8       3.331   2.503  10.748  1.00  0.00     0.060 C 
BRANCH  66  67
ATOM     67  CG  PHE     8       2.902   1.082  10.337  1.00  0.00    -0.020 A 
ATOM     68  CD1 PHE     8       2.605   0.805   9.009  1.00  0.00    -0.004 A 
ATOM     69  CE1 PHE     8       2.119  -0.453   8.655  1.00  0.00    -0.000 A 
ATOM     70  CZ  PHE     8       1.949  -1.424   9.628  1.00  0.00    -0.000 A 
ATOM     71  CE2 PHE     8       2.259  -1.153  10.957  1.00  0.00    -0.000 A 
ATOM     72  CD2 PHE     8       2.745   0.105  11.311  1.00  0.00    -0.004 A 
ENDBRANCH  66  67
ENDBRANCH  65  66
BRANCH  65  73
ATOM     73  C   PHE     8       2.390   4.597   9.640  1.00  0.00     0.275 C 
ATOM     74  N   TRP     9       3.185   5.626   9.939  1.00  0.00    -0.228 NA
ATOM     75  O   PHE     8       1.659   4.621   8.647  1.00  0.00    -0.268 OA
BRANCH  74  76
ATOM     76  CA  TRP     9       3.559   6.651   8.934  1.00  0.00     0.191 C 
BRANCH  76  77
ATOM     77  CB  TRP     9       2.937   7.996   9.343  1.00  0.00     0.062 C 
BRANCH  77  78
ATOM     78  CG  TRP     9       2.098   8.633   8.236  1.00  0.00     0.001 A 
ATOM     79  CD1 TRP     9       2.470   9.646   7.459  1.00  0.00     0.095 A 
ATOM     80  NE1 TRP     9       1.413  10.134   6.822  1.00  0.00    -0.244 NA
ATOM     81  CE2 TRP     9       0.336   9.438   7.154  1.00  0.00     0.081 A 
ATOM     82  CD2 TRP     9       0.726   8.474   8.070  1.00  0.00     0.015 A 
ATOM     83  CZ2 TRP     9      -1.017   9.584   6.848  1.00  0.00     0.019 A 
ATOM     84  CE3 TRP     9      -0.213   7.666   8.695  1.00  0.00     0.001 A 
ATOM     85  CZ3 TRP     9      -1.563   7.819   8.400  1.00  0.00     0.000 A 
ATOM     86  CH2 TRP     9      -1.958   8.769   7.460  1.00  0.00     0.002 A 
ENDBRANCH  77  78
ENDBRANCH  76  77
BRANCH  76  87
ATOM     87  C   TRP     9       5.078   6.779   8.682  1.00  0.00     0.275 C 
ATOM     88  O   TRP     9       5.730   7.680   9.201  1.00  0.00    -0.268 OA
ATOM     89  N   GLY    10       5.639   5.807   7.963  1.00  0.00    -0.226 NA
BRANCH  89  90
ATOM     90  CA  GLY    10       7.092   5.728   7.649  1.00  0.00     0.218 C 
BRANCH  90  91
ATOM     91  C   GLY    10       7.752   4.350   7.816  1.00  0.00     0.277 C 
ATOM     92  N   CYS    11       7.133   3.528   8.662  1.00  0.00    -0.228 NA
ATOM     93  O   GLY    10       8.855   4.124   7.331  1.00  0.00    -0.268 OA
BRANCH  92  94
ATOM     94  CA  CYS    11       7.531   2.141   8.995  1.00  0.00     0.198 C 
BRANCH  94  95
ATOM     95  C   CYS    11       7.242   1.253   7.769  1.00  0.00     0.275 C 
ATOM     96  O   CYS    11       6.086   1.134   7.379  1.00  0.00    -0.268 OA
ATOM     97  N   GLY    12       8.252   0.513   7.336  1.00  0.00    -0.225 NA
BRANCH  97  98
ATOM     98  CA  GLY    12       8.141  -0.401   6.188  1.00  0.00     0.226 C 
BRANCH  98  99
ATOM     99  C   GLY    12       8.538   0.381   4.915  1.00  0.00     0.211 C 
ATOM    100  O1  GLY    12       7.600   0.888   4.249  1.00  0.00    -0.646 OA
ATOM    101  O2  GLY    12       9.750   0.488   4.653  1.00  0.00    -0.646 OA
ENDBRANCH  98  99
ENDBRANCH  97  98
ENDBRANCH  94  95
BRANCH  94 102
ATOM    102  CB  CYS    11       6.650   1.596  10.116  1.00  0.00     0.103 C 
ATOM    103  SG  CYS    11       7.447   0.410  11.266  1.00  0.00    -0.080 SA
ENDBRANCH  94 102
ENDBRANCH  92  94
ENDBRANCH  90  91
ENDBRANCH  89  90
ENDBRANCH  76  87
ENDBRANCH  74  76
ENDBRANCH  65  73
ENDBRANCH  63  65
ENDBRANCH  61  62
BRANCH  61 104
ATOM    104  CB  ASN     7      -1.110   0.955  10.526  1.00  0.00     0.126 C 
BRANCH 104 105
ATOM    105  CG  ASN     7      -1.279  -0.180  11.553  1.00  0.00     0.276 C 
ATOM    106  ND2 ASN     7      -2.124  -1.131  11.227  1.00  0.00    -0.107 N 
ATOM    107  OD1 ASN     7      -0.814  -0.178  12.686  1.00  0.00    -0.269 OA
ENDBRANCH 104 105
ENDBRANCH  61 104
ENDBRANCH  59  61
ENDBRANCH   1  58
TORSDOF 42
ENDMDL
MODEL 7
REMARK VINA RESULT:      -5.4     15.695     24.649
REMARK WARNING: 32 MAX_TORS EXCEEDED!!!
REMARK  42 active torsions:
REMARK  status: ('A' for Active; 'I' for Inactive)
REMARK    1  A    between atoms: CA_2  and  CB_3 
REMARK    2  A    between atoms: CA_2  and  C_11 
REMARK    3  A    between atoms: CB_3  and  CG_4 
REMARK       I    between atoms: C_11  and  N_13 
REMARK    4  A    between atoms: N_13  and  CA_14 
REMARK    5  A    between atoms: CA_14  and  CB_15 
REMARK    6  A    between atoms: CA_14  and  C_19 
REMARK    7  A    between atoms: CB_15  and  CG_16 
REMARK       I    between atoms: C_19  and  N_21 
REMARK    8  A    between atoms: CA_22  and  C_26 
REMARK       I    between atoms: C_26  and  N_28 
REMARK    9  A    between atoms: N_28  and  CA_29 
REMARK   10  A    between atoms: CA_29  and  C_35 
REMARK   11  A    between atoms: CA_29  and  CB_30 
REMARK   12  A    between atoms: CB_30  and  CG_31 
REMARK   13  A    between atoms: CG_31  and  CD_32 
REMARK       I    between atoms: C_35  and  N_37 
REMARK   14  A    between atoms: N_37  and  CA_38 
REMARK   15  A    between atoms: CA_38  and  CB_39 
REMARK   16  A    between atoms: CA_38  and  C_47 
REMARK   17  A    between atoms: CB_39  and  CG_40 
REMARK       I    between atoms: C_47  and  N_49 
REMARK   18  A    between atoms: N_49  and  CA_50 
REMARK   19  A    between atoms: CA_50  and  CB_51 
REMARK   20  A    between atoms: CA_50  and  C_58 
REMARK   21  A    between atoms: CB_51  and  CG_52 
REMARK   22  A    between atoms: CG_52  and  CD_53 
REMARK   23  A    between atoms: CD_53  and  NE_54 
REMARK       I    between atoms: C_58  and  N_60 
REMARK   24  A    between atoms: N_60  and  CA_61 
REMARK   25  A    between atoms: CA_61  and  C_66 
REMARK   26  A    between atoms: CA_61  and  CB_62 
REMARK   27  A    between atoms: CB_62  and  CG_63 
REMARK       I    between atoms: C_66  and  N_68 
REMARK   28  A    between atoms: N_68  and  CA_69 
REMARK   29  A    between atoms: CA_69  and  CB_70 
REMARK   30  A    between atoms: CA_69  and  C_77 
REMARK   31  A    between atoms: CB_70  and  CG_71 
REMARK       I    between atoms: C_77  and  N_79 
REMARK   32  A    between atoms: N_79  and  CA_80 
REMARK   33  A    between atoms: CA_80  and  CB_81 
REMARK   34  A    between atoms: CA_80  and  C_91 
REMARK   35  A    between atoms: CB_81  and  CG_82 
REMARK       I    between atoms: C_91  and  N_93 
REMARK   36  A    between atoms: N_93  and  CA_94 
REMARK   37  A    between atoms: CA_94  and  C_95 
REMARK       I    between atoms: C_95  and  N_97 
REMARK   38  A    between atoms: N_97  and  CA_98 
REMARK   39  A    between atoms: CA_98  and  C_101 
REMARK   40  A    between atoms: CA_98  and  CB_99 
REMARK       I    between atoms: C_101  and  N_103 
REMARK   41  A    between atoms: N_103  and  CA_104 
REMARK   42  A    between atoms: CA_104  and  C_105 
ROOT
ATOM      1  CA  ARG     6      -3.192 -17.352   8.075  1.00  0.00     0.186 C 
ENDROOT
BRANCH   1   2
ATOM      2  N   ARG     6      -3.618 -18.464   7.193  1.00  0.00    -0.229 NA
ATOM      3  C   TYR     5      -3.352 -19.746   7.473  1.00  0.00     0.275 C 
ATOM      4  O   TYR     5      -2.761 -20.087   8.498  1.00  0.00    -0.268 OA
BRANCH   3   5
ATOM      5  CA  TYR     5      -3.916 -20.805   6.513  1.00  0.00     0.191 C 
BRANCH   5   6
ATOM      6  N   TYR     5      -2.889 -21.751   6.003  1.00  0.00    -0.228 NA
ATOM      7  C   GLU     4      -2.483 -21.773   4.723  1.00  0.00     0.274 C 
ATOM      8  O   GLU     4      -2.823 -20.926   3.907  1.00  0.00    -0.268 OA
BRANCH   7   9
ATOM      9  CA  GLU     4      -1.310 -22.722   4.402  1.00  0.00     0.187 C 
BRANCH   9  10
ATOM     10  CB  GLU     4      -1.851 -24.097   3.979  1.00  0.00     0.045 C 
BRANCH  10  11
ATOM     11  CG  GLU     4      -2.186 -24.269   2.481  1.00  0.00     0.100 C 
BRANCH  11  12
ATOM     12  CD  GLU     4      -1.005 -24.719   1.621  1.00  0.00     0.185 C 
ATOM     13  OE1 GLU     4      -0.284 -25.648   2.070  1.00  0.00    -0.647 OA
ATOM     14  OE2 GLU     4      -0.550 -23.885   0.813  1.00  0.00    -0.647 OA
ENDBRANCH  11  12
ENDBRANCH  10  11
ENDBRANCH   9  10
BRANCH   9  15
ATOM     15  N   GLU     4      -0.384 -22.908   5.535  1.00  0.00    -0.229 NA
ATOM     16  C   PRO     3       0.752 -23.595   5.562  1.00  0.00     0.272 C 
ATOM     17  O   PRO     3       1.397 -23.875   4.551  1.00  0.00    -0.269 OA
BRANCH  16  18
ATOM     18  CA  PRO     3       1.484 -23.595   6.906  1.00  0.00     0.165 C 
ATOM     19  N   PRO     3       1.832 -22.255   7.424  1.00  0.00    -0.312 N 
ATOM     20  CD  PRO     3       1.602 -22.211   8.890  1.00  0.00     0.105 C 
ATOM     21  C   ASP     2       2.416 -21.293   6.686  1.00  0.00     0.257 C 
ATOM     22  CG  PRO     3       1.302 -23.669   9.271  1.00  0.00     0.027 C 
ATOM     23  CB  PRO     3       0.660 -24.248   8.013  1.00  0.00     0.034 C 
ATOM     24  O   ASP     2       2.891 -21.559   5.572  1.00  0.00    -0.270 OA
BRANCH  21  25
ATOM     25  CA  ASP     2       2.814 -19.958   7.355  1.00  0.00     0.195 C 
BRANCH  25  26
ATOM     26  CB  ASP     2       1.852 -18.762   7.135  1.00  0.00     0.132 C 
BRANCH  26  27
ATOM     27  CG  ASP     2       1.281 -18.277   8.480  1.00  0.00     0.188 C 
ATOM     28  OD2 ASP     2       2.131 -17.889   9.321  1.00  0.00    -0.647 OA
ATOM     29  OD1 ASP     2       0.205 -18.803   8.859  1.00  0.00    -0.647 OA
ENDBRANCH  26  27
ENDBRANCH  25  26
BRANCH  25  30
ATOM     30  N   ASP     2       4.091 -19.438   6.837  1.00  0.00    -0.228 NA
ATOM     31  C   TYR     1       5.093 -18.971   7.545  1.00  0.00     0.289 C 
ATOM     32  O   TYR     1       5.234 -18.993   8.772  1.00  0.00    -0.268 OA
BRANCH  31  33
ATOM     33  CA  TYR     1       6.158 -18.320   6.667  1.00  0.00     0.385 C 
ATOM     34  N   TYR     1       5.672 -18.343   5.277  1.00  0.00     0.626 N 
BRANCH  33  35
ATOM     35  CB  TYR     1       6.373 -16.902   7.188  1.00  0.00     0.075 C 
BRANCH  35  36
ATOM     36  CG  TYR     1       7.702 -16.733   7.940  1.00  0.00    -0.019 A 
ATOM     37  CD2 TYR     1       8.607 -17.777   8.053  1.00  0.00    -0.002 A 
ATOM     38  CE2 TYR     1       9.855 -17.561   8.617  1.00  0.00     0.027 A 
ATOM     39  CZ  TYR     1      10.183 -16.286   9.075  1.00  0.00     0.131 A 
ATOM     40  CE1 TYR     1       9.260 -15.258   8.997  1.00  0.00     0.027 A 
ATOM     41  OH  TYR     1      11.446 -16.005   9.453  1.00  0.00    -0.190 OA
ATOM     42  CD1 TYR     1       8.012 -15.474   8.433  1.00  0.00    -0.002 A 
ENDBRANCH  35  36
ENDBRANCH  33  35
ENDBRANCH  31  33
ENDBRANCH  25  30
ENDBRANCH  21  25
ENDBRANCH  16  18
ENDBRANCH   9  15
ENDBRANCH   7   9
ENDBRANCH   5   6
BRANCH   5  43
ATOM     43  CB  TYR     5      -5.069 -21.583   7.168  1.00  0.00     0.060 C 
BRANCH  43  44
ATOM     44  CG  TYR     5      -6.257 -21.781   6.212  1.00  0.00    -0.020 A 
ATOM     45  CD2 TYR     5      -7.422 -22.398   6.649  1.00  0.00    -0.002 A 
ATOM     46  CE2 TYR     5      -8.495 -22.566   5.779  1.00  0.00     0.027 A 
ATOM     47  CZ  TYR     5      -8.402 -22.117   4.470  1.00  0.00     0.131 A 
ATOM     48  CE1 TYR     5      -7.246 -21.483   4.029  1.00  0.00     0.027 A 
ATOM     49  OH  TYR     5      -9.381 -22.400   3.583  1.00  0.00    -0.190 OA
ATOM     50  CD1 TYR     5      -6.169 -21.323   4.902  1.00  0.00    -0.002 A 
ENDBRANCH  43  44
ENDBRANCH   5  43
ENDBRANCH   3   5
ENDBRANCH   1   2
BRANCH   1  51
ATOM     51  CB  ARG     6      -2.789 -16.101   7.301  1.00  0.00     0.036 C 
BRANCH  51  52
ATOM     52  CG  ARG     6      -1.292 -16.025   6.990  1.00  0.00     0.029 C 
BRANCH  52  53
ATOM     53  CD  ARG     6      -0.568 -15.213   8.060  1.00  0.00     0.145 C 
BRANCH  53  54
ATOM     54  NE  ARG     6      -1.431 -14.140   8.583  1.00  0.00    -0.083 NA
ATOM     55  CZ  ARG     6      -1.110 -13.297   9.582  1.00  0.00     0.782 C 
ATOM     56  NH2 ARG     6      -2.001 -12.412  10.035  1.00  0.00     0.063 N 
ATOM     57  NH1 ARG     6       0.069 -13.392  10.188  1.00  0.00     0.063 N 
ENDBRANCH  53  54
ENDBRANCH  52  53
ENDBRANCH  51  52
ENDBRANCH   1  51
BRANCH   1  58
ATOM     58  C   ARG     6      -4.292 -16.927   9.056  1.00  0.00     0.274 C 
ATOM     59  N   ASN     7      -4.542 -15.622   9.111  1.00  0.00    -0.228 NA
ATOM     60  O   ARG     6      -4.867 -17.787   9.724  1.00  0.00    -0.268 OA
BRANCH  59  61
ATOM     61  CA  ASN     7      -5.629 -15.035   9.922  1.00  0.00     0.196 C 
BRANCH  61  62
ATOM     62  C   ASN     7      -6.300 -13.851   9.198  1.00  0.00     0.275 C 
ATOM     63  N   PHE     8      -5.908 -13.608   7.938  1.00  0.00    -0.228 NA
ATOM     64  O   ASN     7      -7.370 -13.471   9.633  1.00  0.00    -0.268 OA
BRANCH  63  65
ATOM     65  CA  PHE     8      -6.495 -12.574   7.052  1.00  0.00     0.191 C 
BRANCH  65  66
ATOM     66  CB  PHE     8      -5.346 -11.815   6.373  1.00  0.00     0.060 C 
BRANCH  66  67
ATOM     67  CG  PHE     8      -4.930 -10.516   7.089  1.00  0.00    -0.020 A 
ATOM     68  CD1 PHE     8      -5.063  -9.296   6.440  1.00  0.00    -0.004 A 
ATOM     69  CE1 PHE     8      -4.592  -8.132   7.049  1.00  0.00    -0.000 A 
ATOM     70  CZ  PHE     8      -4.009  -8.199   8.304  1.00  0.00    -0.000 A 
ATOM     71  CE2 PHE     8      -3.888  -9.419   8.961  1.00  0.00    -0.000 A 
ATOM     72  CD2 PHE     8      -4.358 -10.583   8.352  1.00  0.00    -0.004 A 
ENDBRANCH  66  67
ENDBRANCH  65  66
BRANCH  65  73
ATOM     73  C   PHE     8      -7.518 -13.101   6.021  1.00  0.00     0.275 C 
ATOM     74  N   TRP     9      -8.805 -12.883   6.298  1.00  0.00    -0.228 NA
ATOM     75  O   PHE     8      -7.178 -13.892   5.138  1.00  0.00    -0.268 OA
BRANCH  74  76
ATOM     76  CA  TRP     9      -9.885 -13.224   5.340  1.00  0.00     0.191 C 
BRANCH  76  77
ATOM     77  CB  TRP     9     -10.690 -14.408   5.901  1.00  0.00     0.062 C 
BRANCH  77  78
ATOM     78  CG  TRP     9     -10.098 -15.768   5.532  1.00  0.00     0.001 A 
ATOM     79  CD1 TRP     9     -10.499 -16.549   4.534  1.00  0.00     0.095 A 
ATOM     80  NE1 TRP     9      -9.980 -17.762   4.678  1.00  0.00    -0.244 NA
ATOM     81  CE2 TRP     9      -9.216 -17.791   5.760  1.00  0.00     0.081 A 
ATOM     82  CD2 TRP     9      -9.273 -16.537   6.347  1.00  0.00     0.015 A 
ATOM     83  CZ2 TRP     9      -8.525 -18.818   6.403  1.00  0.00     0.019 A 
ATOM     84  CE3 TRP     9      -8.665 -16.297   7.570  1.00  0.00     0.001 A 
ATOM     85  CZ3 TRP     9      -7.987 -17.323   8.220  1.00  0.00     0.000 A 
ATOM     86  CH2 TRP     9      -7.905 -18.578   7.620  1.00  0.00     0.002 A 
ENDBRANCH  77  78
ENDBRANCH  76  77
BRANCH  76  87
ATOM     87  C   TRP     9     -10.803 -12.040   4.960  1.00  0.00     0.275 C 
ATOM     88  O   TRP     9     -11.801 -12.214   4.266  1.00  0.00    -0.268 OA
ATOM     89  N   GLY    10     -10.504 -10.864   5.508  1.00  0.00    -0.226 NA
BRANCH  89  90
ATOM     90  CA  GLY    10     -11.290  -9.617   5.300  1.00  0.00     0.218 C 
BRANCH  90  91
ATOM     91  C   GLY    10     -12.265  -9.230   6.424  1.00  0.00     0.277 C 
ATOM     92  N   CYS    11     -12.892 -10.254   7.003  1.00  0.00    -0.228 NA
ATOM     93  O   GLY    10     -12.551  -8.055   6.624  1.00  0.00    -0.268 OA
BRANCH  92  94
ATOM     94  CA  CYS    11     -13.861 -10.177   8.119  1.00  0.00     0.198 C 
BRANCH  94  95
ATOM     95  C   CYS    11     -13.506 -11.277   9.138  1.00  0.00     0.275 C 
ATOM     96  O   CYS    11     -13.914 -12.418   8.949  1.00  0.00    -0.268 OA
ATOM     97  N   GLY    12     -12.941 -10.868  10.264  1.00  0.00    -0.225 NA
BRANCH  97  98
ATOM     98  CA  GLY    12     -12.554 -11.785  11.347  1.00  0.00     0.226 C 
BRANCH  98  99
ATOM     99  C   GLY    12     -13.071 -11.196  12.680  1.00  0.00     0.211 C 
ATOM    100  O1  GLY    12     -13.473 -12.018  13.542  1.00  0.00    -0.646 OA
ATOM    101  O2  GLY    12     -13.023  -9.960  12.826  1.00  0.00    -0.646 OA
ENDBRANCH  98  99
ENDBRANCH  97  98
ENDBRANCH  94  95
BRANCH  94 102
ATOM    102  CB  CYS    11     -15.264 -10.514   7.621  1.00  0.00     0.103 C 
ATOM    103  SG  CYS    11     -15.386 -11.113   5.891  1.00  0.00    -0.080 SA
ENDBRANCH  94 102
ENDBRANCH  92  94
ENDBRANCH  90  91
ENDBRANCH  89  90
ENDBRANCH  76  87
ENDBRANCH  74  76
ENDBRANCH  65  73
ENDBRANCH  63  65
ENDBRANCH  61  62
BRANCH  61 104
ATOM    104  CB  ASN     7      -5.124 -14.611  11.307  1.00  0.00     0.126 C 
BRANCH 104 105
ATOM    105  CG  ASN     7      -5.967 -15.125  12.488  1.00  0.00     0.276 C 
ATOM    106  ND2 ASN     7      -5.455 -16.123  13.172  1.00  0.00    -0.107 N 
ATOM    107  OD1 ASN     7      -7.118 -14.784  12.731  1.00  0.00    -0.269 OA
ENDBRANCH 104 105
ENDBRANCH  61 104
ENDBRANCH  59  61
ENDBRANCH   1  58
TORSDOF 42
ENDMDL
MODEL 8
REMARK VINA RESULT:      -5.4      4.168     11.638
REMARK WARNING: 32 MAX_TORS EXCEEDED!!!
REMARK  42 active torsions:
REMARK  status: ('A' for Active; 'I' for Inactive)
REMARK    1  A    between atoms: CA_2  and  CB_3 
REMARK    2  A    between atoms: CA_2  and  C_11 
REMARK    3  A    between atoms: CB_3  and  CG_4 
REMARK       I    between atoms: C_11  and  N_13 
REMARK    4  A    between atoms: N_13  and  CA_14 
REMARK    5  A    between atoms: CA_14  and  CB_15 
REMARK    6  A    between atoms: CA_14  and  C_19 
REMARK    7  A    between atoms: CB_15  and  CG_16 
REMARK       I    between atoms: C_19  and  N_21 
REMARK    8  A    between atoms: CA_22  and  C_26 
REMARK       I    between atoms: C_26  and  N_28 
REMARK    9  A    between atoms: N_28  and  CA_29 
REMARK   10  A    between atoms: CA_29  and  C_35 
REMARK   11  A    between atoms: CA_29  and  CB_30 
REMARK   12  A    between atoms: CB_30  and  CG_31 
REMARK   13  A    between atoms: CG_31  and  CD_32 
REMARK       I    between atoms: C_35  and  N_37 
REMARK   14  A    between atoms: N_37  and  CA_38 
REMARK   15  A    between atoms: CA_38  and  CB_39 
REMARK   16  A    between atoms: CA_38  and  C_47 
REMARK   17  A    between atoms: CB_39  and  CG_40 
REMARK       I    between atoms: C_47  and  N_49 
REMARK   18  A    between atoms: N_49  and  CA_50 
REMARK   19  A    between atoms: CA_50  and  CB_51 
REMARK   20  A    between atoms: CA_50  and  C_58 
REMARK   21  A    between atoms: CB_51  and  CG_52 
REMARK   22  A    between atoms: CG_52  and  CD_53 
REMARK   23  A    between atoms: CD_53  and  NE_54 
REMARK       I    between atoms: C_58  and  N_60 
REMARK   24  A    between atoms: N_60  and  CA_61 
REMARK   25  A    between atoms: CA_61  and  C_66 
REMARK   26  A    between atoms: CA_61  and  CB_62 
REMARK   27  A    between atoms: CB_62  and  CG_63 
REMARK       I    between atoms: C_66  and  N_68 
REMARK   28  A    between atoms: N_68  and  CA_69 
REMARK   29  A    between atoms: CA_69  and  CB_70 
REMARK   30  A    between atoms: CA_69  and  C_77 
REMARK   31  A    between atoms: CB_70  and  CG_71 
REMARK       I    between atoms: C_77  and  N_79 
REMARK   32  A    between atoms: N_79  and  CA_80 
REMARK   33  A    between atoms: CA_80  and  CB_81 
REMARK   34  A    between atoms: CA_80  and  C_91 
REMARK   35  A    between atoms: CB_81  and  CG_82 
REMARK       I    between atoms: C_91  and  N_93 
REMARK   36  A    between atoms: N_93  and  CA_94 
REMARK   37  A    between atoms: CA_94  and  C_95 
REMARK       I    between atoms: C_95  and  N_97 
REMARK   38  A    between atoms: N_97  and  CA_98 
REMARK   39  A    between atoms: CA_98  and  C_101 
REMARK   40  A    between atoms: CA_98  and  CB_99 
REMARK       I    between atoms: C_101  and  N_103 
REMARK   41  A    between atoms: N_103  and  CA_104 
REMARK   42  A    between atoms: CA_104  and  C_105 
ROOT
ATOM      1  CA  ARG     6      -5.892   1.493   5.219  1.00  0.00     0.186 C 
ENDROOT
BRANCH   1   2
ATOM      2  N   ARG     6      -6.072   1.091   6.634  1.00  0.00    -0.229 NA
ATOM      3  C   TYR     5      -5.452   0.028   7.163  1.00  0.00     0.275 C 
ATOM      4  O   TYR     5      -4.670  -0.668   6.514  1.00  0.00    -0.268 OA
BRANCH   3   5
ATOM      5  CA  TYR     5      -5.667  -0.235   8.662  1.00  0.00     0.191 C 
BRANCH   5   6
ATOM      6  N   TYR     5      -4.519   0.183   9.508  1.00  0.00    -0.228 NA
ATOM      7  C   GLU     4      -4.150  -0.473  10.620  1.00  0.00     0.274 C 
ATOM      8  O   GLU     4      -4.641  -1.546  10.948  1.00  0.00    -0.268 OA
BRANCH   7   9
ATOM      9  CA  GLU     4      -2.852   0.015  11.295  1.00  0.00     0.187 C 
BRANCH   9  10
ATOM     10  CB  GLU     4      -2.695   1.531  11.088  1.00  0.00     0.045 C 
BRANCH  10  11
ATOM     11  CG  GLU     4      -1.426   1.990  10.336  1.00  0.00     0.100 C 
BRANCH  11  12
ATOM     12  CD  GLU     4      -1.596   2.090   8.820  1.00  0.00     0.185 C 
ATOM     13  OE1 GLU     4      -0.612   2.508   8.155  1.00  0.00    -0.647 OA
ATOM     14  OE2 GLU     4      -2.761   2.218   8.393  1.00  0.00    -0.647 OA
ENDBRANCH  11  12
ENDBRANCH  10  11
ENDBRANCH   9  10
BRANCH   9  15
ATOM     15  N   GLU     4      -1.641  -0.657  10.785  1.00  0.00    -0.229 NA
ATOM     16  C   PRO     3      -0.470  -0.807  11.391  1.00  0.00     0.272 C 
ATOM     17  O   PRO     3      -0.326  -0.734  12.613  1.00  0.00    -0.269 OA
BRANCH  16  18
ATOM     18  CA  PRO     3       0.592  -1.558  10.585  1.00  0.00     0.165 C 
ATOM     19  N   PRO     3       1.974  -1.067  10.768  1.00  0.00    -0.312 N 
ATOM     20  CD  PRO     3       2.909  -2.219  10.837  1.00  0.00     0.105 C 
ATOM     21  C   ASP     2       2.323   0.232  10.716  1.00  0.00     0.257 C 
ATOM     22  CG  PRO     3       2.042  -3.433  10.465  1.00  0.00     0.027 C 
ATOM     23  CB  PRO     3       0.646  -3.042  10.942  1.00  0.00     0.034 C 
ATOM     24  O   ASP     2       1.521   1.080  10.296  1.00  0.00    -0.270 OA
BRANCH  21  25
ATOM     25  CA  ASP     2       3.813   0.624  10.835  1.00  0.00     0.195 C 
BRANCH  25  26
ATOM     26  CB  ASP     2       4.304   1.048  12.244  1.00  0.00     0.132 C 
BRANCH  26  27
ATOM     27  CG  ASP     2       3.683   2.399  12.646  1.00  0.00     0.188 C 
ATOM     28  OD2 ASP     2       4.501   3.297  12.966  1.00  0.00    -0.647 OA
ATOM     29  OD1 ASP     2       2.542   2.361  13.170  1.00  0.00    -0.647 OA
ENDBRANCH  26  27
ENDBRANCH  25  26
BRANCH  25  30
ATOM     30  N   ASP     2       4.143   1.802  10.016  1.00  0.00    -0.228 NA
ATOM     31  C   TYR     1       4.461   1.808   8.742  1.00  0.00     0.289 C 
ATOM     32  O   TYR     1       4.419   0.867   7.943  1.00  0.00    -0.268 OA
BRANCH  31  33
ATOM     33  CA  TYR     1       4.950   3.178   8.282  1.00  0.00     0.385 C 
ATOM     34  N   TYR     1       5.081   3.141   6.816  1.00  0.00     0.626 N 
BRANCH  33  35
ATOM     35  CB  TYR     1       3.926   4.208   8.751  1.00  0.00     0.075 C 
BRANCH  35  36
ATOM     36  CG  TYR     1       4.572   5.479   9.325  1.00  0.00    -0.019 A 
ATOM     37  CD2 TYR     1       4.439   6.706   8.692  1.00  0.00    -0.002 A 
ATOM     38  CE2 TYR     1       4.915   7.858   9.299  1.00  0.00     0.027 A 
ATOM     39  CZ  TYR     1       5.532   7.765  10.546  1.00  0.00     0.131 A 
ATOM     40  CE1 TYR     1       5.697   6.533  11.153  1.00  0.00     0.027 A 
ATOM     41  OH  TYR     1       5.833   8.882  11.239  1.00  0.00    -0.190 OA
ATOM     42  CD1 TYR     1       5.222   5.381  10.546  1.00  0.00    -0.002 A 
ENDBRANCH  35  36
ENDBRANCH  33  35
ENDBRANCH  31  33
ENDBRANCH  25  30
ENDBRANCH  21  25
ENDBRANCH  16  18
ENDBRANCH   9  15
ENDBRANCH   7   9
ENDBRANCH   5   6
BRANCH   5  43
ATOM     43  CB  TYR     5      -6.959   0.436   9.158  1.00  0.00     0.060 C 
BRANCH  43  44
ATOM     44  CG  TYR     5      -8.175  -0.502   9.071  1.00  0.00    -0.020 A 
ATOM     45  CD2 TYR     5      -9.460   0.014   8.967  1.00  0.00    -0.002 A 
ATOM     46  CE2 TYR     5     -10.553  -0.843   8.881  1.00  0.00     0.027 A 
ATOM     47  CZ  TYR     5     -10.361  -2.215   8.900  1.00  0.00     0.131 A 
ATOM     48  CE1 TYR     5      -9.076  -2.740   8.985  1.00  0.00     0.027 A 
ATOM     49  OH  TYR     5     -11.421  -3.050   8.958  1.00  0.00    -0.190 OA
ATOM     50  CD1 TYR     5      -7.983  -1.879   9.080  1.00  0.00    -0.002 A 
ENDBRANCH  43  44
ENDBRANCH   5  43
ENDBRANCH   3   5
ENDBRANCH   1   2
BRANCH   1  51
ATOM     51  CB  ARG     6      -7.191   1.950   4.563  1.00  0.00     0.036 C 
BRANCH  51  52
ATOM     52  CG  ARG     6      -8.440   1.653   5.398  1.00  0.00     0.029 C 
BRANCH  52  53
ATOM     53  CD  ARG     6      -8.955   0.248   5.101  1.00  0.00     0.145 C 
BRANCH  53  54
ATOM     54  NE  ARG     6      -8.123  -0.416   4.084  1.00  0.00    -0.083 NA
ATOM     55  CZ  ARG     6      -8.375  -1.618   3.532  1.00  0.00     0.782 C 
ATOM     56  NH2 ARG     6      -7.508  -2.167   2.678  1.00  0.00     0.063 N 
ATOM     57  NH1 ARG     6      -9.448  -2.313   3.896  1.00  0.00     0.063 N 
ENDBRANCH  53  54
ENDBRANCH  52  53
ENDBRANCH  51  52
ENDBRANCH   1  51
BRANCH   1  58
ATOM     58  C   ARG     6      -4.891   2.644   5.059  1.00  0.00     0.274 C 
ATOM     59  N   ASN     7      -5.150   3.737   5.771  1.00  0.00    -0.228 NA
ATOM     60  O   ARG     6      -3.932   2.505   4.299  1.00  0.00    -0.268 OA
BRANCH  59  61
ATOM     61  CA  ASN     7      -4.250   4.908   5.822  1.00  0.00     0.196 C 
BRANCH  61  62
ATOM     62  C   ASN     7      -3.720   5.154   7.248  1.00  0.00     0.275 C 
ATOM     63  N   PHE     8      -2.411   5.421   7.372  1.00  0.00    -0.228 NA
ATOM     64  O   ASN     7      -4.533   5.472   8.094  1.00  0.00    -0.268 OA
BRANCH  63  65
ATOM     65  CA  PHE     8      -1.733   5.769   8.645  1.00  0.00     0.191 C 
BRANCH  65  66
ATOM     66  CB  PHE     8      -0.254   6.047   8.341  1.00  0.00     0.060 C 
BRANCH  66  67
ATOM     67  CG  PHE     8       0.621   6.267   9.589  1.00  0.00    -0.020 A 
ATOM     68  CD1 PHE     8       0.857   5.215  10.463  1.00  0.00    -0.004 A 
ATOM     69  CE1 PHE     8       1.564   5.439  11.645  1.00  0.00    -0.000 A 
ATOM     70  CZ  PHE     8       2.040   6.709  11.931  1.00  0.00    -0.000 A 
ATOM     71  CE2 PHE     8       1.816   7.761  11.050  1.00  0.00    -0.000 A 
ATOM     72  CD2 PHE     8       1.109   7.537   9.868  1.00  0.00    -0.004 A 
ENDBRANCH  66  67
ENDBRANCH  65  66
BRANCH  65  73
ATOM     73  C   PHE     8      -2.382   6.928   9.435  1.00  0.00     0.275 C 
ATOM     74  N   TRP     9      -2.433   8.110   8.819  1.00  0.00    -0.228 NA
ATOM     75  O   PHE     8      -2.601   6.826  10.644  1.00  0.00    -0.268 OA
BRANCH  74  76
ATOM     76  CA  TRP     9      -3.137   9.276   9.409  1.00  0.00     0.191 C 
BRANCH  76  77
ATOM     77  CB  TRP     9      -2.272  10.531   9.207  1.00  0.00     0.062 C 
BRANCH  77  78
ATOM     78  CG  TRP     9      -1.203  10.359   8.129  1.00  0.00     0.001 A 
ATOM     79  CD1 TRP     9      -1.343   9.685   6.991  1.00  0.00     0.095 A 
ATOM     80  NE1 TRP     9      -0.153   9.488   6.438  1.00  0.00    -0.244 NA
ATOM     81  CE2 TRP     9       0.783  10.047   7.190  1.00  0.00     0.081 A 
ATOM     82  CD2 TRP     9       0.156  10.605   8.293  1.00  0.00     0.015 A 
ATOM     83  CZ2 TRP     9       2.176  10.058   7.115  1.00  0.00     0.019 A 
ATOM     84  CE3 TRP     9       0.897  11.160   9.326  1.00  0.00     0.001 A 
ATOM     85  CZ3 TRP     9       2.286  11.160   9.259  1.00  0.00     0.000 A 
ATOM     86  CH2 TRP     9       2.920  10.624   8.140  1.00  0.00     0.002 A 
ENDBRANCH  77  78
ENDBRANCH  76  77
BRANCH  76  87
ATOM     87  C   TRP     9      -4.577   9.486   8.888  1.00  0.00     0.275 C 
ATOM     88  O   TRP     9      -4.802  10.241   7.947  1.00  0.00    -0.268 OA
ATOM     89  N   GLY    10      -5.521   8.733   9.449  1.00  0.00    -0.226 NA
BRANCH  89  90
ATOM     90  CA  GLY    10      -6.957   8.758   9.057  1.00  0.00     0.218 C 
BRANCH  90  91
ATOM     91  C   GLY    10      -7.345   7.908   7.836  1.00  0.00     0.277 C 
ATOM     92  N   CYS    11      -7.695   6.652   8.112  1.00  0.00    -0.228 NA
ATOM     93  O   GLY    10      -7.166   8.331   6.700  1.00  0.00    -0.268 OA
BRANCH  92  94
ATOM     94  CA  CYS    11      -8.134   5.625   7.141  1.00  0.00     0.198 C 
BRANCH  94  95
ATOM     95  C   CYS    11      -9.522   6.032   6.609  1.00  0.00     0.275 C 
ATOM     96  O   CYS    11     -10.413   6.296   7.409  1.00  0.00    -0.268 OA
ATOM     97  N   GLY    12      -9.715   5.876   5.308  1.00  0.00    -0.225 NA
BRANCH  97  98
ATOM     98  CA  GLY    12     -10.986   6.201   4.641  1.00  0.00     0.226 C 
BRANCH  98  99
ATOM     99  C   GLY    12     -11.553   4.898   4.032  1.00  0.00     0.211 C 
ATOM    100  O1  GLY    12     -12.658   4.986   3.439  1.00  0.00    -0.646 OA
ATOM    101  O2  GLY    12     -10.867   3.864   4.135  1.00  0.00    -0.646 OA
ENDBRANCH  98  99
ENDBRANCH  97  98
ENDBRANCH  94  95
BRANCH  94 102
ATOM    102  CB  CYS    11      -8.339   4.287   7.847  1.00  0.00     0.103 C 
ATOM    103  SG  CYS    11      -7.638   4.149   9.536  1.00  0.00    -0.080 SA
ENDBRANCH  94 102
ENDBRANCH  92  94
ENDBRANCH  90  91
ENDBRANCH  89  90
ENDBRANCH  76  87
ENDBRANCH  74  76
ENDBRANCH  65  73
ENDBRANCH  63  65
ENDBRANCH  61  62
BRANCH  61 104
ATOM    104  CB  ASN     7      -4.938   6.163   5.272  1.00  0.00     0.126 C 
BRANCH 104 105
ATOM    105  CG  ASN     7      -4.293   6.752   4.003  1.00  0.00     0.276 C 
ATOM    106  ND2 ASN     7      -4.184   8.060   3.966  1.00  0.00    -0.107 N 
ATOM    107  OD1 ASN     7      -4.027   6.117   2.991  1.00  0.00    -0.269 OA
ENDBRANCH 104 105
ENDBRANCH  61 104
ENDBRANCH  59  61
ENDBRANCH   1  58
TORSDOF 42
ENDMDL
MODEL 9
REMARK VINA RESULT:      -5.3     20.392     27.508
REMARK WARNING: 32 MAX_TORS EXCEEDED!!!
REMARK  42 active torsions:
REMARK  status: ('A' for Active; 'I' for Inactive)
REMARK    1  A    between atoms: CA_2  and  CB_3 
REMARK    2  A    between atoms: CA_2  and  C_11 
REMARK    3  A    between atoms: CB_3  and  CG_4 
REMARK       I    between atoms: C_11  and  N_13 
REMARK    4  A    between atoms: N_13  and  CA_14 
REMARK    5  A    between atoms: CA_14  and  CB_15 
REMARK    6  A    between atoms: CA_14  and  C_19 
REMARK    7  A    between atoms: CB_15  and  CG_16 
REMARK       I    between atoms: C_19  and  N_21 
REMARK    8  A    between atoms: CA_22  and  C_26 
REMARK       I    between atoms: C_26  and  N_28 
REMARK    9  A    between atoms: N_28  and  CA_29 
REMARK   10  A    between atoms: CA_29  and  C_35 
REMARK   11  A    between atoms: CA_29  and  CB_30 
REMARK   12  A    between atoms: CB_30  and  CG_31 
REMARK   13  A    between atoms: CG_31  and  CD_32 
REMARK       I    between atoms: C_35  and  N_37 
REMARK   14  A    between atoms: N_37  and  CA_38 
REMARK   15  A    between atoms: CA_38  and  CB_39 
REMARK   16  A    between atoms: CA_38  and  C_47 
REMARK   17  A    between atoms: CB_39  and  CG_40 
REMARK       I    between atoms: C_47  and  N_49 
REMARK   18  A    between atoms: N_49  and  CA_50 
REMARK   19  A    between atoms: CA_50  and  CB_51 
REMARK   20  A    between atoms: CA_50  and  C_58 
REMARK   21  A    between atoms: CB_51  and  CG_52 
REMARK   22  A    between atoms: CG_52  and  CD_53 
REMARK   23  A    between atoms: CD_53  and  NE_54 
REMARK       I    between atoms: C_58  and  N_60 
REMARK   24  A    between atoms: N_60  and  CA_61 
REMARK   25  A    between atoms: CA_61  and  C_66 
REMARK   26  A    between atoms: CA_61  and  CB_62 
REMARK   27  A    between atoms: CB_62  and  CG_63 
REMARK       I    between atoms: C_66  and  N_68 
REMARK   28  A    between atoms: N_68  and  CA_69 
REMARK   29  A    between atoms: CA_69  and  CB_70 
REMARK   30  A    between atoms: CA_69  and  C_77 
REMARK   31  A    between atoms: CB_70  and  CG_71 
REMARK       I    between atoms: C_77  and  N_79 
REMARK   32  A    between atoms: N_79  and  CA_80 
REMARK   33  A    between atoms: CA_80  and  CB_81 
REMARK   34  A    between atoms: CA_80  and  C_91 
REMARK   35  A    between atoms: CB_81  and  CG_82 
REMARK       I    between atoms: C_91  and  N_93 
REMARK   36  A    between atoms: N_93  and  CA_94 
REMARK   37  A    between atoms: CA_94  and  C_95 
REMARK       I    between atoms: C_95  and  N_97 
REMARK   38  A    between atoms: N_97  and  CA_98 
REMARK   39  A    between atoms: CA_98  and  C_101 
REMARK   40  A    between atoms: CA_98  and  CB_99 
REMARK       I    between atoms: C_101  and  N_103 
REMARK   41  A    between atoms: N_103  and  CA_104 
REMARK   42  A    between atoms: CA_104  and  C_105 
ROOT
ATOM      1  CA  ARG     6       0.953 -22.475   6.369  1.00  0.00     0.186 C 
ENDROOT
BRANCH   1   2
ATOM      2  N   ARG     6       1.349 -21.202   7.016  1.00  0.00    -0.229 NA
ATOM      3  C   TYR     5       2.570 -20.671   6.868  1.00  0.00     0.275 C 
ATOM      4  O   TYR     5       3.433 -21.192   6.161  1.00  0.00    -0.268 OA
BRANCH   3   5
ATOM      5  CA  TYR     5       2.827 -19.309   7.532  1.00  0.00     0.191 C 
BRANCH   5   6
ATOM      6  N   TYR     5       1.590 -18.642   8.015  1.00  0.00    -0.228 NA
ATOM      7  C   GLU     4       1.296 -17.359   7.748  1.00  0.00     0.274 C 
ATOM      8  O   GLU     4       1.952 -16.679   6.971  1.00  0.00    -0.268 OA
BRANCH   7   9
ATOM      9  CA  GLU     4      -0.094 -16.873   8.209  1.00  0.00     0.187 C 
BRANCH   9  10
ATOM     10  CB  GLU     4      -1.149 -17.232   7.150  1.00  0.00     0.045 C 
BRANCH  10  11
ATOM     11  CG  GLU     4      -2.486 -17.794   7.681  1.00  0.00     0.100 C 
BRANCH  11  12
ATOM     12  CD  GLU     4      -2.407 -19.234   8.187  1.00  0.00     0.185 C 
ATOM     13  OE1 GLU     4      -2.499 -19.415   9.429  1.00  0.00    -0.647 OA
ATOM     14  OE2 GLU     4      -1.807 -20.051   7.460  1.00  0.00    -0.647 OA
ENDBRANCH  11  12
ENDBRANCH  10  11
ENDBRANCH   9  10
BRANCH   9  15
ATOM     15  N   GLU     4      -0.150 -15.420   8.457  1.00  0.00    -0.229 NA
ATOM     16  C   PRO     3      -0.937 -14.762   9.300  1.00  0.00     0.272 C 
ATOM     17  O   PRO     3      -1.480 -15.291  10.272  1.00  0.00    -0.269 OA
BRANCH  16  18
ATOM     18  CA  PRO     3      -0.748 -13.244   9.319  1.00  0.00     0.165 C 
ATOM     19  N   PRO     3      -2.003 -12.462   9.327  1.00  0.00    -0.312 N 
ATOM     20  CD  PRO     3      -1.864 -11.304  10.247  1.00  0.00     0.105 C 
ATOM     21  C   ASP     2      -3.039 -12.695   8.500  1.00  0.00     0.257 C 
ATOM     22  CG  PRO     3      -0.376 -11.301  10.631  1.00  0.00     0.027 C 
ATOM     23  CB  PRO     3       0.022 -12.772  10.550  1.00  0.00     0.034 C 
ATOM     24  O   ASP     2      -2.906 -13.456   7.530  1.00  0.00    -0.270 OA
BRANCH  21  25
ATOM     25  CA  ASP     2      -4.268 -11.758   8.538  1.00  0.00     0.195 C 
BRANCH  25  26
ATOM     26  CB  ASP     2      -5.277 -11.993   9.692  1.00  0.00     0.132 C 
BRANCH  26  27
ATOM     27  CG  ASP     2      -6.298 -13.078   9.301  1.00  0.00     0.188 C 
ATOM     28  OD2 ASP     2      -7.444 -12.659   8.996  1.00  0.00    -0.647 OA
ATOM     29  OD1 ASP     2      -6.154 -14.207   9.834  1.00  0.00    -0.647 OA
ENDBRANCH  26  27
ENDBRANCH  25  26
BRANCH  25  30
ATOM     30  N   ASP     2      -5.113 -11.905   7.341  1.00  0.00    -0.228 NA
ATOM     31  C   TYR     1      -5.432 -10.962   6.486  1.00  0.00     0.289 C 
ATOM     32  O   TYR     1      -4.992  -9.810   6.424  1.00  0.00    -0.268 OA
BRANCH  31  33
ATOM     33  CA  TYR     1      -6.497 -11.426   5.496  1.00  0.00     0.385 C 
ATOM     34  N   TYR     1      -6.657 -10.372   4.480  1.00  0.00     0.626 N 
BRANCH  33  35
ATOM     35  CB  TYR     1      -6.019 -12.747   4.898  1.00  0.00     0.075 C 
BRANCH  35  36
ATOM     36  CG  TYR     1      -7.107 -13.831   4.890  1.00  0.00    -0.019 A 
ATOM     37  CD2 TYR     1      -7.904 -14.047   3.776  1.00  0.00    -0.002 A 
ATOM     38  CE2 TYR     1      -8.784 -15.118   3.745  1.00  0.00     0.027 A 
ATOM     39  CZ  TYR     1      -8.861 -15.967   4.848  1.00  0.00     0.131 A 
ATOM     40  CE1 TYR     1      -8.092 -15.723   5.972  1.00  0.00     0.027 A 
ATOM     41  OH  TYR     1      -9.564 -17.115   4.772  1.00  0.00    -0.190 OA
ATOM     42  CD1 TYR     1      -7.212 -14.652   6.003  1.00  0.00    -0.002 A 
ENDBRANCH  35  36
ENDBRANCH  33  35
ENDBRANCH  31  33
ENDBRANCH  25  30
ENDBRANCH  21  25
ENDBRANCH  16  18
ENDBRANCH   9  15
ENDBRANCH   7   9
ENDBRANCH   5   6
BRANCH   5  43
ATOM     43  CB  TYR     5       3.839 -19.441   8.682  1.00  0.00     0.060 C 
BRANCH  43  44
ATOM     44  CG  TYR     5       5.157 -18.705   8.387  1.00  0.00    -0.020 A 
ATOM     45  CD2 TYR     5       6.348 -19.128   8.964  1.00  0.00    -0.002 A 
ATOM     46  CE2 TYR     5       7.536 -18.460   8.685  1.00  0.00     0.027 A 
ATOM     47  CZ  TYR     5       7.534 -17.369   7.830  1.00  0.00     0.131 A 
ATOM     48  CE1 TYR     5       6.350 -16.950   7.235  1.00  0.00     0.027 A 
ATOM     49  OH  TYR     5       8.654 -16.633   7.664  1.00  0.00    -0.190 OA
ATOM     50  CD1 TYR     5       5.158 -17.616   7.523  1.00  0.00    -0.002 A 
ENDBRANCH  43  44
ENDBRANCH   5  43
ENDBRANCH   3   5
ENDBRANCH   1   2
BRANCH   1  51
ATOM     51  CB  ARG     6       0.084 -23.351   7.266  1.00  0.00     0.036 C 
BRANCH  51  52
ATOM     52  CG  ARG     6       0.159 -22.977   8.749  1.00  0.00     0.029 C 
BRANCH  52  53
ATOM     53  CD  ARG     6      -1.182 -23.234   9.429  1.00  0.00     0.145 C 
BRANCH  53  54
ATOM     54  NE  ARG     6      -2.284 -23.201   8.454  1.00  0.00    -0.083 NA
ATOM     55  CZ  ARG     6      -3.190 -24.179   8.265  1.00  0.00     0.782 C 
ATOM     56  NH2 ARG     6      -4.100 -24.082   7.293  1.00  0.00     0.063 N 
ATOM     57  NH1 ARG     6      -3.135 -25.293   8.987  1.00  0.00     0.063 N 
ENDBRANCH  53  54
ENDBRANCH  52  53
ENDBRANCH  51  52
ENDBRANCH   1  51
BRANCH   1  58
ATOM     58  C   ARG     6       0.162 -22.253   5.073  1.00  0.00     0.274 C 
ATOM     59  N   ASN     7       0.056 -23.312   4.275  1.00  0.00    -0.228 NA
ATOM     60  O   ARG     6      -0.315 -21.142   4.843  1.00  0.00    -0.268 OA
BRANCH  59  61
ATOM     61  CA  ASN     7      -0.748 -23.319   3.035  1.00  0.00     0.196 C 
BRANCH  61  62
ATOM     62  C   ASN     7      -2.238 -23.584   3.326  1.00  0.00     0.275 C 
ATOM     63  N   PHE     8      -3.074 -23.565   2.278  1.00  0.00    -0.228 NA
ATOM     64  O   ASN     7      -2.506 -24.158   4.364  1.00  0.00    -0.268 OA
BRANCH  63  65
ATOM     65  CA  PHE     8      -4.522 -23.880   2.342  1.00  0.00     0.191 C 
BRANCH  65  66
ATOM     66  CB  PHE     8      -5.250 -23.010   1.308  1.00  0.00     0.060 C 
BRANCH  66  67
ATOM     67  CG  PHE     8      -6.654 -22.547   1.741  1.00  0.00    -0.020 A 
ATOM     68  CD1 PHE     8      -7.685 -22.502   0.813  1.00  0.00    -0.004 A 
ATOM     69  CE1 PHE     8      -8.928 -21.987   1.180  1.00  0.00    -0.000 A 
ATOM     70  CZ  PHE     8      -9.131 -21.538   2.475  1.00  0.00    -0.000 A 
ATOM     71  CE2 PHE     8      -8.104 -21.595   3.411  1.00  0.00    -0.000 A 
ATOM     72  CD2 PHE     8      -6.861 -22.110   3.043  1.00  0.00    -0.004 A 
ENDBRANCH  66  67
ENDBRANCH  65  66
BRANCH  65  73
ATOM     73  C   PHE     8      -4.873 -25.376   2.178  1.00  0.00     0.275 C 
ATOM     74  N   TRP     9      -4.947 -26.095   3.299  1.00  0.00    -0.228 NA
ATOM     75  O   PHE     8      -4.833 -25.918   1.071  1.00  0.00    -0.268 OA
BRANCH  74  76
ATOM     76  CA  TRP     9      -5.394 -27.510   3.299  1.00  0.00     0.191 C 
BRANCH  76  77
ATOM     77  CB  TRP     9      -4.806 -28.216   4.532  1.00  0.00     0.062 C 
BRANCH  77  78
ATOM     78  CG  TRP     9      -3.365 -28.683   4.327  1.00  0.00     0.001 A 
ATOM     79  CD1 TRP     9      -2.983 -29.757   3.643  1.00  0.00     0.095 A 
ATOM     80  NE1 TRP     9      -1.712 -30.031   3.911  1.00  0.00    -0.244 NA
ATOM     81  CE2 TRP     9      -1.235 -29.131   4.759  1.00  0.00     0.081 A 
ATOM     82  CD2 TRP     9      -2.265 -28.255   5.063  1.00  0.00     0.015 A 
ATOM     83  CZ2 TRP     9      -0.013 -29.008   5.419  1.00  0.00     0.019 A 
ATOM     84  CE3 TRP     9      -2.099 -27.270   6.025  1.00  0.00     0.001 A 
ATOM     85  CZ3 TRP     9      -0.885 -27.154   6.694  1.00  0.00     0.000 A 
ATOM     86  CH2 TRP     9       0.162 -28.015   6.372  1.00  0.00     0.002 A 
ENDBRANCH  77  78
ENDBRANCH  76  77
BRANCH  76  87
ATOM     87  C   TRP     9      -6.926 -27.699   3.211  1.00  0.00     0.275 C 
ATOM     88  O   TRP     9      -7.680 -27.080   3.955  1.00  0.00    -0.268 OA
ATOM     89  N   GLY    10      -7.366 -28.483   2.228  1.00  0.00    -0.226 NA
BRANCH  89  90
ATOM     90  CA  GLY    10      -8.804 -28.754   1.953  1.00  0.00     0.218 C 
BRANCH  90  91
ATOM     91  C   GLY    10      -9.414 -29.979   2.654  1.00  0.00     0.277 C 
ATOM     92  N   CYS    11      -9.353 -31.114   1.959  1.00  0.00    -0.228 NA
ATOM     93  O   GLY    10     -10.054 -29.849   3.691  1.00  0.00    -0.268 OA
BRANCH  92  94
ATOM     94  CA  CYS    11      -9.838 -32.442   2.396  1.00  0.00     0.198 C 
BRANCH  94  95
ATOM     95  C   CYS    11     -11.377 -32.441   2.310  1.00  0.00     0.275 C 
ATOM     96  O   CYS    11     -11.916 -32.023   1.291  1.00  0.00    -0.268 OA
ATOM     97  N   GLY    12     -12.023 -32.713   3.434  1.00  0.00    -0.225 NA
BRANCH  97  98
ATOM     98  CA  GLY    12     -13.491 -32.737   3.530  1.00  0.00     0.226 C 
BRANCH  98  99
ATOM     99  C   GLY    12     -13.900 -31.964   4.805  1.00  0.00     0.211 C 
ATOM    100  O1  GLY    12     -13.225 -30.941   5.084  1.00  0.00    -0.646 OA
ATOM    101  O2  GLY    12     -14.883 -32.380   5.445  1.00  0.00    -0.646 OA
ENDBRANCH  98  99
ENDBRANCH  97  98
ENDBRANCH  94  95
BRANCH  94 102
ATOM    102  CB  CYS    11      -9.508 -32.664   3.870  1.00  0.00     0.103 C 
ATOM    103  SG  CYS    11      -7.800 -33.219   4.242  1.00  0.00    -0.080 SA
ENDBRANCH  94 102
ENDBRANCH  92  94
ENDBRANCH  90  91
ENDBRANCH  89  90
ENDBRANCH  76  87
ENDBRANCH  74  76
ENDBRANCH  65  73
ENDBRANCH  63  65
ENDBRANCH  61  62
BRANCH  61 104
ATOM    104  CB  ASN     7      -0.201 -24.334   2.023  1.00  0.00     0.126 C 
BRANCH 104 105
ATOM    105  CG  ASN     7      -0.169 -25.791   2.521  1.00  0.00     0.276 C 
ATOM    106  ND2 ASN     7      -1.157 -26.558   2.123  1.00  0.00    -0.107 N 
ATOM    107  OD1 ASN     7       0.605 -26.228   3.364  1.00  0.00    -0.269 OA
ENDBRANCH 104 105
ENDBRANCH  61 104
ENDBRANCH  59  61
ENDBRANCH   1  58
TORSDOF 42
ENDMDL
