REMARK WARNING: 32 MAX_TORS EXCEEDED!!!
REMARK  50 active torsions:
REMARK  status: ('A' for Active; 'I' for Inactive)
REMARK    1  A    between atoms: CA_2  and  CB_3 
REMARK    2  A    between atoms: CA_2  and  C_8 
REMARK    3  A    between atoms: CB_3  and  CG_4 
REMARK    4  A    between atoms: CG_4  and  CD_5 
REMARK    5  A    between atoms: CD_5  and  CE_6 
REMARK       I    between atoms: C_8  and  N_10 
REMARK    6  A    between atoms: N_10  and  CA_11 
REMARK    7  A    between atoms: CA_11  and  C_16 
REMARK    8  A    between atoms: CA_11  and  CB_12 
REMARK    9  A    between atoms: CB_12  and  CG_13 
REMARK       I    between atoms: C_16  and  N_18 
REMARK   10  A    between atoms: N_18  and  CA_19 
REMARK   11  A    between atoms: CA_19  and  CB_20 
REMARK   12  A    between atoms: CA_19  and  C_25 
REMARK   13  A    between atoms: CB_20  and  CG_21 
REMARK   14  A    between atoms: CG_21  and  CD_22 
REMARK   15  A    between atoms: CD_22  and  CE_23 
REMARK       I    between atoms: C_25  and  N_27 
REMARK   16  A    between atoms: N_27  and  CA_28 
REMARK   17  A    between atoms: CA_28  and  C_36 
REMARK   18  A    between atoms: CA_28  and  CB_29 
REMARK   19  A    between atoms: CB_29  and  CG_30 
REMARK   20  A    between atoms: CG_30  and  CD_31 
REMARK   21  A    between atoms: CD_31  and  NE_32 
REMARK       I    between atoms: C_36  and  N_38 
REMARK   22  A    between atoms: N_38  and  CA_39 
REMARK   23  A    between atoms: CA_39  and  CB_40 
REMARK   24  A    between atoms: CA_39  and  C_47 
REMARK   25  A    between atoms: CB_40  and  CG_41 
REMARK   26  A    between atoms: CG_41  and  CD_42 
REMARK   27  A    between atoms: CD_42  and  NE_43 
REMARK       I    between atoms: C_47  and  N_49 
REMARK   28  A    between atoms: N_49  and  CA_50 
REMARK   29  A    between atoms: CA_50  and  C_55 
REMARK   30  A    between atoms: CA_50  and  CB_51 
REMARK   31  A    between atoms: CB_51  and  CG_52 
REMARK       I    between atoms: C_55  and  N_57 
REMARK   32  A    between atoms: N_57  and  CA_58 
REMARK   33  A    between atoms: CA_58  and  CB_59 
REMARK   34  A    between atoms: CA_58  and  C_64 
REMARK   35  A    between atoms: CB_59  and  CG_60 
REMARK   36  A    between atoms: CG_60  and  CD_61 
REMARK       I    between atoms: C_64  and  N_66 
REMARK   37  A    between atoms: N_66  and  CA_67 
REMARK   38  A    between atoms: CA_67  and  CB_68 
REMARK   39  A    between atoms: CA_67  and  C_73 
REMARK   40  A    between atoms: CB_68  and  CG_69 
REMARK   41  A    between atoms: CG_69  and  CD_70 
REMARK       I    between atoms: C_73  and  N_75 
REMARK   42  A    between atoms: N_75  and  CA_76 
REMARK   43  A    between atoms: CA_76  and  CB_77 
REMARK   44  A    between atoms: CA_76  and  C_84 
REMARK   45  A    between atoms: CB_77  and  CG_78 
REMARK       I    between atoms: C_84  and  N_86 
REMARK   46  A    between atoms: N_86  and  CA_87 
REMARK   47  A    between atoms: CA_87  and  CB_88 
REMARK   48  A    between atoms: CA_87  and  C_93 
REMARK   49  A    between atoms: CB_88  and  CG_89 
REMARK   50  A    between atoms: CG_89  and  CD_90 
ROOT
ATOM      1  C   ARG     5      29.680  30.340  31.650  1.00  0.00     0.274 C 
ATOM      2  O   ARG     5      29.610  31.190  32.530  1.00  0.00    -0.268 OA
ATOM      3  N   LEU     6      30.790  29.630  31.450  1.00  0.00    -0.229 NA
ENDROOT
BRANCH   1   4
ATOM      4  CA  ARG     5      28.390  29.840  30.960  1.00  0.00     0.186 C 
BRANCH   4   5
ATOM      5  N   ARG     5      28.620  29.160  29.660  1.00  0.00    -0.229 NA
ATOM      6  C   ARG     4      29.140  29.780  28.600  1.00  0.00     0.274 C 
ATOM      7  O   ARG     4      29.680  30.880  28.690  1.00  0.00    -0.268 OA
BRANCH   6   8
ATOM      8  CA  ARG     4      29.430  28.940  27.340  1.00  0.00     0.186 C 
BRANCH   8   9
ATOM      9  N   ARG     4      30.060  27.630  27.600  1.00  0.00    -0.229 NA
ATOM     10  C   LYS     3      31.210  27.490  28.260  1.00  0.00     0.274 C 
ATOM     11  O   LYS     3      31.770  28.410  28.850  1.00  0.00    -0.268 OA
BRANCH  10  12
ATOM     12  CA  LYS     3      31.670  26.050  28.540  1.00  0.00     0.186 C 
BRANCH  12  13
ATOM     13  CB  LYS     3      32.200  25.380  27.250  1.00  0.00     0.034 C 
BRANCH  13  14
ATOM     14  CG  LYS     3      33.530  25.950  26.740  1.00  0.00     0.005 C 
BRANCH  14  15
ATOM     15  CD  LYS     3      33.390  27.110  25.740  1.00  0.00     0.041 C 
BRANCH  15  16
ATOM     16  CE  LYS     3      34.740  27.770  25.440  1.00  0.00     0.338 C 
ATOM     17  NZ  LYS     3      34.630  28.870  24.470  1.00  0.00     0.618 N 
ENDBRANCH  15  16
ENDBRANCH  14  15
ENDBRANCH  13  14
ENDBRANCH  12  13
BRANCH  12  18
ATOM     18  N   LYS     3      30.600  25.220  29.160  1.00  0.00    -0.229 NA
ATOM     19  C   ASN     2      29.900  25.610  30.230  1.00  0.00     0.275 C 
ATOM     20  O   ASN     2      30.040  26.700  30.780  1.00  0.00    -0.268 OA
BRANCH  19  21
ATOM     21  CA  ASN     2      28.760  24.690  30.730  1.00  0.00     0.196 C 
BRANCH  21  22
ATOM     22  CB  ASN     2      29.360  23.500  31.500  1.00  0.00     0.126 C 
BRANCH  22  23
ATOM     23  CG  ASN     2      30.100  23.990  32.760  1.00  0.00     0.276 C 
ATOM     24  OD1 ASN     2      29.590  24.750  33.570  1.00  0.00    -0.269 OA
ATOM     25  ND2 ASN     2      31.330  23.570  32.930  1.00  0.00    -0.107 N 
ENDBRANCH  22  23
ENDBRANCH  21  22
BRANCH  21  26
ATOM     26  N   ASN     2      27.750  24.290  29.720  1.00  0.00    -0.228 NA
ATOM     27  C   LYS     1      26.960  25.220  29.140  1.00  0.00     0.289 C 
ATOM     28  O   LYS     1      27.280  26.400  29.150  1.00  0.00    -0.268 OA
BRANCH  27  29
ATOM     29  CA  LYS     1      25.750  24.810  28.260  1.00  0.00     0.381 C 
ATOM     30  N   LYS     1      25.040  23.560  28.640  1.00  0.00     0.626 N 
BRANCH  29  31
ATOM     31  CB  LYS     1      24.730  25.970  28.220  1.00  0.00     0.049 C 
BRANCH  31  32
ATOM     32  CG  LYS     1      23.760  26.000  27.030  1.00  0.00     0.005 C 
BRANCH  32  33
ATOM     33  CD  LYS     1      22.890  27.270  27.080  1.00  0.00     0.041 C 
BRANCH  33  34
ATOM     34  CE  LYS     1      21.920  27.390  25.900  1.00  0.00     0.338 C 
ATOM     35  NZ  LYS     1      21.090  28.610  25.950  1.00  0.00     0.618 N 
ENDBRANCH  33  34
ENDBRANCH  32  33
ENDBRANCH  31  32
ENDBRANCH  29  31
ENDBRANCH  27  29
ENDBRANCH  21  26
ENDBRANCH  19  21
ENDBRANCH  12  18
ENDBRANCH  10  12
ENDBRANCH   8   9
BRANCH   8  36
ATOM     36  CB  ARG     4      28.200  28.770  26.440  1.00  0.00     0.036 C 
BRANCH  36  37
ATOM     37  CG  ARG     4      27.650  30.110  25.950  1.00  0.00     0.029 C 
BRANCH  37  38
ATOM     38  CD  ARG     4      28.690  30.950  25.200  1.00  0.00     0.145 C 
BRANCH  38  39
ATOM     39  NE  ARG     4      28.300  32.370  25.260  1.00  0.00    -0.083 NA
ATOM     40  CZ  ARG     4      28.980  33.390  24.730  1.00  0.00     0.782 C 
ATOM     41  NH2 ARG     4      28.360  34.580  24.620  1.00  0.00     0.063 N 
ATOM     42  NH1 ARG     4      30.200  33.230  24.200  1.00  0.00     0.063 N 
ENDBRANCH  38  39
ENDBRANCH  37  38
ENDBRANCH  36  37
ENDBRANCH   8  36
ENDBRANCH   6   8
ENDBRANCH   4   5
BRANCH   4  43
ATOM     43  CB  ARG     5      27.600  28.910  31.890  1.00  0.00     0.036 C 
BRANCH  43  44
ATOM     44  CG  ARG     5      27.050  29.640  33.120  1.00  0.00     0.029 C 
BRANCH  44  45
ATOM     45  CD  ARG     5      26.600  28.690  34.230  1.00  0.00     0.145 C 
BRANCH  45  46
ATOM     46  NE  ARG     5      27.710  27.820  34.680  1.00  0.00    -0.083 NA
ATOM     47  CZ  ARG     5      28.720  28.130  35.510  1.00  0.00     0.782 C 
ATOM     48  NH2 ARG     5      29.600  27.170  35.800  1.00  0.00     0.063 N 
ATOM     49  NH1 ARG     5      28.900  29.350  36.020  1.00  0.00     0.063 N 
ENDBRANCH  45  46
ENDBRANCH  44  45
ENDBRANCH  43  44
ENDBRANCH   4  43
ENDBRANCH   1   4
BRANCH   3  50
ATOM     50  CA  LEU     6      32.130  30.060  31.920  1.00  0.00     0.186 C 
BRANCH  50  51
ATOM     51  C   LEU     6      32.700  31.220  31.080  1.00  0.00     0.274 C 
ATOM     52  N   GLU     7      32.670  31.020  29.760  1.00  0.00    -0.229 NA
ATOM     53  O   LEU     6      32.740  32.340  31.570  1.00  0.00    -0.268 OA
BRANCH  52  54
ATOM     54  CA  GLU     7      33.020  31.990  28.690  1.00  0.00     0.187 C 
BRANCH  54  55
ATOM     55  CB  GLU     7      32.800  31.180  27.400  1.00  0.00     0.045 C 
BRANCH  55  56
ATOM     56  CG  GLU     7      32.870  31.870  26.040  1.00  0.00     0.100 C 
BRANCH  56  57
ATOM     57  CD  GLU     7      32.430  30.950  24.890  1.00  0.00     0.185 C 
ATOM     58  OE1 GLU     7      31.810  29.890  25.130  1.00  0.00    -0.647 OA
ATOM     59  OE2 GLU     7      32.840  31.210  23.740  1.00  0.00    -0.647 OA
ENDBRANCH  56  57
ENDBRANCH  55  56
ENDBRANCH  54  55
BRANCH  54  60
ATOM     60  C   GLU     7      32.210  33.320  28.710  1.00  0.00     0.274 C 
ATOM     61  N   GLU     8      30.970  33.230  29.190  1.00  0.00    -0.229 NA
ATOM     62  O   GLU     7      32.560  34.270  28.020  1.00  0.00    -0.268 OA
BRANCH  61  63
ATOM     63  CA  GLU     8      30.040  34.360  29.450  1.00  0.00     0.187 C 
BRANCH  63  64
ATOM     64  CB  GLU     8      28.610  33.810  29.370  1.00  0.00     0.045 C 
BRANCH  64  65
ATOM     65  CG  GLU     8      27.740  34.480  28.300  1.00  0.00     0.100 C 
BRANCH  65  66
ATOM     66  CD  GLU     8      26.500  33.670  27.900  1.00  0.00     0.185 C 
ATOM     67  OE1 GLU     8      26.620  32.440  27.710  1.00  0.00    -0.647 OA
ATOM     68  OE2 GLU     8      25.470  34.290  27.570  1.00  0.00    -0.647 OA
ENDBRANCH  65  66
ENDBRANCH  64  65
ENDBRANCH  63  64
BRANCH  63  69
ATOM     69  C   GLU     8      30.240  35.120  30.790  1.00  0.00     0.274 C 
ATOM     70  O   GLU     8      29.540  36.090  31.050  1.00  0.00    -0.268 OA
ATOM     71  N   PHE     9      31.020  34.520  31.700  1.00  0.00    -0.228 NA
BRANCH  71  72
ATOM     72  CA  PHE     9      31.280  35.020  33.070  1.00  0.00     0.191 C 
BRANCH  72  73
ATOM     73  CB  PHE     9      30.880  33.880  34.030  1.00  0.00     0.060 C 
BRANCH  73  74
ATOM     74  CG  PHE     9      31.060  34.150  35.530  1.00  0.00    -0.020 A 
ATOM     75  CD1 PHE     9      30.090  34.850  36.240  1.00  0.00    -0.004 A 
ATOM     76  CE1 PHE     9      30.290  35.150  37.580  1.00  0.00    -0.000 A 
ATOM     77  CZ  PHE     9      31.460  34.750  38.210  1.00  0.00    -0.000 A 
ATOM     78  CE2 PHE     9      32.430  34.050  37.510  1.00  0.00    -0.000 A 
ATOM     79  CD2 PHE     9      32.230  33.750  36.160  1.00  0.00    -0.004 A 
ENDBRANCH  73  74
ENDBRANCH  72  73
BRANCH  72  80
ATOM     80  C   PHE     9      32.740  35.500  33.320  1.00  0.00     0.275 C 
ATOM     81  N   GLU    10      33.670  34.900  32.570  1.00  0.00    -0.227 NA
ATOM     82  O   PHE     9      32.980  36.160  34.320  1.00  0.00    -0.268 OA
BRANCH  81  83
ATOM     83  CA  GLU    10      35.110  35.200  32.540  1.00  0.00     0.193 C 
BRANCH  83  84
ATOM     84  CB  GLU    10      35.720  34.130  31.620  1.00  0.00     0.047 C 
BRANCH  84  85
ATOM     85  CG  GLU    10      37.230  33.860  31.760  1.00  0.00     0.100 C 
BRANCH  85  86
ATOM     86  CD  GLU    10      37.700  32.610  30.990  1.00  0.00     0.185 C 
ATOM     87  OE1 GLU    10      36.950  31.600  30.940  1.00  0.00    -0.647 OA
ATOM     88  OE2 GLU    10      38.870  32.630  30.530  1.00  0.00    -0.647 OA
ENDBRANCH  85  86
ENDBRANCH  84  85
ENDBRANCH  83  84
BRANCH  83  89
ATOM     89  C   GLU    10      35.370  36.630  32.000  1.00  0.00     0.209 C 
ATOM     90  O1  GLU    10      34.630  37.060  31.090  1.00  0.00    -0.646 OA
ATOM     91  O2  GLU    10      36.280  37.300  32.550  1.00  0.00    -0.646 OA
ENDBRANCH  83  89
ENDBRANCH  81  83
ENDBRANCH  72  80
ENDBRANCH  71  72
ENDBRANCH  63  69
ENDBRANCH  61  63
ENDBRANCH  54  60
ENDBRANCH  52  54
ENDBRANCH  50  51
BRANCH  50  92
ATOM     92  CB  LEU     6      33.080  28.860  31.990  1.00  0.00     0.034 C 
BRANCH  92  93
ATOM     93  CG  LEU     6      32.640  27.810  33.020  1.00  0.00     0.002 C 
ATOM     94  CD2 LEU     6      32.720  28.360  34.450  1.00  0.00     0.000 C 
ATOM     95  CD1 LEU     6      33.490  26.550  32.890  1.00  0.00     0.000 C 
ENDBRANCH  92  93
ENDBRANCH  50  92
ENDBRANCH   3  50
TORSDOF 50
