REMARK  28 active torsions:
REMARK  status: ('A' for Active; 'I' for Inactive)
REMARK    1  A    between atoms: CA_2  and  C_7 
REMARK    2  A    between atoms: CA_2  and  CB_3 
REMARK    3  A    between atoms: CB_3  and  CG_4 
REMARK       I    between atoms: C_7  and  N_9 
REMARK    4  A    between atoms: N_9  and  CA_10 
REMARK    5  A    between atoms: CA_10  and  C_11 
REMARK       I    between atoms: C_11  and  N_13 
REMARK    6  A    between atoms: N_13  and  CA_14 
REMARK    7  A    between atoms: CA_14  and  CB_15 
REMARK    8  A    between atoms: CA_14  and  C_19 
REMARK    9  A    between atoms: CB_15  and  CG_16 
REMARK       I    between atoms: C_19  and  N_21 
REMARK   10  A    between atoms: N_21  and  CA_22 
REMARK   11  A    between atoms: CA_22  and  CB_23 
REMARK   12  A    between atoms: CA_22  and  C_28 
REMARK   13  A    between atoms: CB_23  and  CG_24 
REMARK   14  A    between atoms: CG_24  and  CD_25 
REMARK       I    between atoms: C_28  and  N_30 
REMARK   15  A    between atoms: N_30  and  CA_31 
REMARK   16  A    between atoms: CA_31  and  CB_32 
REMARK   17  A    between atoms: CA_31  and  C_39 
REMARK   18  A    between atoms: CB_32  and  CG_33 
REMARK   19  A    between atoms: CG_33  and  CD_34 
REMARK   20  A    between atoms: CD_34  and  NE_35 
REMARK       I    between atoms: C_39  and  N_41 
REMARK   21  A    between atoms: N_41  and  CA_42 
REMARK   22  A    between atoms: CA_42  and  CB_43 
REMARK   23  A    between atoms: CA_42  and  C_46 
REMARK       I    between atoms: C_46  and  N_48 
REMARK   24  A    between atoms: N_48  and  CA_49 
REMARK   25  A    between atoms: CA_49  and  CB_50 
REMARK   26  A    between atoms: CA_49  and  C_55 
REMARK   27  A    between atoms: CB_50  and  CG_51 
REMARK   28  A    between atoms: CG_51  and  CD_52 
ROOT
ATOM      1  C   GLU     4      29.060  26.350  27.010  1.00  0.00     0.274 C 
ATOM      2  O   GLU     4      29.880  25.530  27.410  1.00  0.00    -0.268 OA
ATOM      3  N   ARG     5      28.270  26.070  25.980  1.00  0.00    -0.229 NA
ENDROOT
BRANCH   1   4
ATOM      4  CA  GLU     4      28.570  27.460  27.990  1.00  0.00     0.187 C 
BRANCH   4   5
ATOM      5  N   GLU     4      27.600  28.530  27.620  1.00  0.00    -0.229 NA
ATOM      6  C   LEU     3      27.260  28.970  26.400  1.00  0.00     0.274 C 
ATOM      7  O   LEU     3      27.880  28.720  25.390  1.00  0.00    -0.268 OA
BRANCH   6   8
ATOM      8  CA  LEU     3      25.910  29.710  26.280  1.00  0.00     0.186 C 
BRANCH   8   9
ATOM      9  CB  LEU     3      25.690  30.810  27.330  1.00  0.00     0.034 C 
BRANCH   9  10
ATOM     10  CG  LEU     3      26.110  32.210  26.900  1.00  0.00     0.002 C 
ATOM     11  CD1 LEU     3      25.380  32.690  25.640  1.00  0.00     0.000 C 
ATOM     12  CD2 LEU     3      25.880  33.190  28.050  1.00  0.00     0.000 C 
ENDBRANCH   9  10
ENDBRANCH   8   9
BRANCH   8  13
ATOM     13  N   LEU     3      24.750  28.810  26.460  1.00  0.00    -0.229 NA
ATOM     14  C   GLY     2      24.570  27.580  25.990  1.00  0.00     0.277 C 
ATOM     15  O   GLY     2      25.420  26.870  25.450  1.00  0.00    -0.268 OA
BRANCH  14  16
ATOM     16  CA  GLY     2      23.320  26.930  26.600  1.00  0.00     0.218 C 
BRANCH  16  17
ATOM     17  N   GLY     2      23.630  26.560  28.000  1.00  0.00    -0.226 NA
ATOM     18  C   ASN     1      24.190  25.390  28.310  1.00  0.00     0.290 C 
ATOM     19  O   ASN     1      24.140  24.430  27.560  1.00  0.00    -0.268 OA
BRANCH  18  20
ATOM     20  CA  ASN     1      24.540  25.190  29.790  1.00  0.00     0.390 C 
ATOM     21  N   ASN     1      23.400  25.380  30.700  1.00  0.00     0.627 N 
BRANCH  20  22
ATOM     22  CB  ASN     1      25.270  23.850  30.040  1.00  0.00     0.141 C 
BRANCH  22  23
ATOM     23  CG  ASN     1      25.120  23.360  31.490  1.00  0.00     0.277 C 
ATOM     24  OD1 ASN     1      24.100  22.790  31.820  1.00  0.00    -0.269 OA
ATOM     25  ND2 ASN     1      25.870  23.920  32.410  1.00  0.00    -0.107 N 
ENDBRANCH  22  23
ENDBRANCH  20  22
ENDBRANCH  18  20
ENDBRANCH  16  17
ENDBRANCH  14  16
ENDBRANCH   8  13
ENDBRANCH   6   8
ENDBRANCH   4   5
BRANCH   4  26
ATOM     26  CB  GLU     4      28.050  26.790  29.260  1.00  0.00     0.045 C 
BRANCH  26  27
ATOM     27  CG  GLU     4      27.880  27.730  30.460  1.00  0.00     0.100 C 
BRANCH  27  28
ATOM     28  CD  GLU     4      26.960  27.090  31.500  1.00  0.00     0.185 C 
ATOM     29  OE1 GLU     4      27.390  26.120  32.140  1.00  0.00    -0.647 OA
ATOM     30  OE2 GLU     4      25.740  27.380  31.470  1.00  0.00    -0.647 OA
ENDBRANCH  27  28
ENDBRANCH  26  27
ENDBRANCH   4  26
ENDBRANCH   1   4
BRANCH   3  31
ATOM     31  CA  ARG     5      28.620  25.100  24.900  1.00  0.00     0.186 C 
BRANCH  31  32
ATOM     32  CB  ARG     5      27.560  24.000  24.810  1.00  0.00     0.036 C 
BRANCH  32  33
ATOM     33  CG  ARG     5      27.470  23.080  26.030  1.00  0.00     0.029 C 
BRANCH  33  34
ATOM     34  CD  ARG     5      26.580  21.880  25.710  1.00  0.00     0.145 C 
BRANCH  34  35
ATOM     35  NE  ARG     5      25.250  22.320  25.250  1.00  0.00    -0.083 NA
ATOM     36  CZ  ARG     5      24.100  22.110  25.900  1.00  0.00     0.782 C 
ATOM     37  NH2 ARG     5      22.970  22.660  25.430  1.00  0.00     0.063 N 
ATOM     38  NH1 ARG     5      24.080  21.470  27.080  1.00  0.00     0.063 N 
ENDBRANCH  34  35
ENDBRANCH  33  34
ENDBRANCH  32  33
ENDBRANCH  31  32
BRANCH  31  39
ATOM     39  C   ARG     5      28.790  25.700  23.480  1.00  0.00     0.274 C 
ATOM     40  O   ARG     5      28.750  24.950  22.500  1.00  0.00    -0.268 OA
ATOM     41  N   VAL     6      28.600  27.000  23.400  1.00  0.00    -0.229 NA
BRANCH  41  42
ATOM     42  CA  VAL     6      28.710  27.840  22.180  1.00  0.00     0.186 C 
BRANCH  42  43
ATOM     43  CB  VAL     6      27.400  28.620  21.970  1.00  0.00     0.032 C 
ATOM     44  CG1 VAL     6      27.400  29.450  20.680  1.00  0.00     0.003 C 
ATOM     45  CG2 VAL     6      26.170  27.690  21.950  1.00  0.00     0.003 C 
ENDBRANCH  42  43
BRANCH  42  46
ATOM     46  C   VAL     6      29.930  28.780  22.320  1.00  0.00     0.274 C 
ATOM     47  O   VAL     6      30.440  29.260  21.290  1.00  0.00    -0.268 OA
ATOM     48  N   GLU     7      30.150  29.240  23.540  1.00  0.00    -0.227 NA
BRANCH  48  49
ATOM     49  CA  GLU     7      31.420  29.820  24.040  1.00  0.00     0.193 C 
BRANCH  49  50
ATOM     50  CB  GLU     7      31.170  30.380  25.450  1.00  0.00     0.047 C 
BRANCH  50  51
ATOM     51  CG  GLU     7      30.170  31.540  25.460  1.00  0.00     0.100 C 
BRANCH  51  52
ATOM     52  CD  GLU     7      29.640  31.930  26.850  1.00  0.00     0.185 C 
ATOM     53  OE1 GLU     7      29.180  31.030  27.590  1.00  0.00    -0.647 OA
ATOM     54  OE2 GLU     7      29.480  33.150  27.070  1.00  0.00    -0.647 OA
ENDBRANCH  51  52
ENDBRANCH  50  51
ENDBRANCH  49  50
BRANCH  49  55
ATOM     55  C   GLU     7      32.510  28.740  24.100  1.00  0.00     0.209 C 
ATOM     56  O1  GLU     7      32.150  27.550  24.320  1.00  0.00    -0.646 OA
ATOM     57  O2  GLU     7      33.690  29.090  23.880  1.00  0.00    -0.646 OA
ENDBRANCH  49  55
ENDBRANCH  48  49
ENDBRANCH  42  46
ENDBRANCH  41  42
ENDBRANCH  31  39
ENDBRANCH   3  31
TORSDOF 28
