REMARK WARNING: 32 MAX_TORS EXCEEDED!!!
REMARK  35 active torsions:
REMARK  status: ('A' for Active; 'I' for Inactive)
REMARK    1  A    between atoms: CA_2  and  C_11 
REMARK    2  A    between atoms: CA_2  and  CB_3 
REMARK    3  A    between atoms: CB_3  and  CG_4 
REMARK       I    between atoms: C_11  and  N_13 
REMARK    4  A    between atoms: N_13  and  CA_14 
REMARK    5  A    between atoms: CA_14  and  CB_15 
REMARK    6  A    between atoms: CA_14  and  C_19 
REMARK    7  A    between atoms: CB_15  and  CG_16 
REMARK       I    between atoms: C_19  and  N_21 
REMARK    8  A    between atoms: CA_22  and  C_26 
REMARK       I    between atoms: C_26  and  N_28 
REMARK    9  A    between atoms: N_28  and  CA_29 
REMARK   10  A    between atoms: CA_29  and  CB_30 
REMARK   11  A    between atoms: CA_29  and  C_35 
REMARK   12  A    between atoms: CB_30  and  CG_31 
REMARK   13  A    between atoms: CG_31  and  CD_32 
REMARK       I    between atoms: C_35  and  N_37 
REMARK   14  A    between atoms: N_37  and  CA_38 
REMARK   15  A    between atoms: CA_38  and  CB_39 
REMARK   16  A    between atoms: CA_38  and  C_47 
REMARK   17  A    between atoms: CB_39  and  CG_40 
REMARK       I    between atoms: C_47  and  N_49 
REMARK   18  A    between atoms: N_49  and  CA_50 
REMARK   19  A    between atoms: CA_50  and  CB_51 
REMARK   20  A    between atoms: CA_50  and  C_58 
REMARK   21  A    between atoms: CB_51  and  CG_52 
REMARK   22  A    between atoms: CG_52  and  CD_53 
REMARK   23  A    between atoms: CD_53  and  NE_54 
REMARK       I    between atoms: C_58  and  N_60 
REMARK   24  A    between atoms: N_60  and  CA_61 
REMARK   25  A    between atoms: CA_61  and  CB_62 
REMARK   26  A    between atoms: CA_61  and  C_66 
REMARK   27  A    between atoms: CB_62  and  CG_63 
REMARK       I    between atoms: C_66  and  N_68 
REMARK   28  A    between atoms: N_68  and  CA_69 
REMARK   29  A    between atoms: CA_69  and  CB_70 
REMARK   30  A    between atoms: CA_69  and  C_77 
REMARK   31  A    between atoms: CB_70  and  CG_71 
REMARK       I    between atoms: C_77  and  N_79 
REMARK   32  A    between atoms: N_79  and  CA_80 
REMARK   33  A    between atoms: CA_80  and  C_91 
REMARK   34  A    between atoms: CA_80  and  CB_81 
REMARK   35  A    between atoms: CB_81  and  CG_82 
ROOT
ATOM      1  C   TYR     5      28.840  28.180  29.160  1.00  0.00     0.275 C 
ATOM      2  O   TYR     5      30.020  28.440  28.980  1.00  0.00    -0.268 OA
ATOM      3  N   ARG     6      28.290  28.200  30.370  1.00  0.00    -0.229 NA
ENDROOT
BRANCH   1   4
ATOM      4  CA  TYR     5      28.100  27.380  28.080  1.00  0.00     0.191 C 
BRANCH   4   5
ATOM      5  N   TYR     5      27.810  25.990  28.520  1.00  0.00    -0.228 NA
ATOM      6  C   GLU     4      28.770  25.170  28.970  1.00  0.00     0.274 C 
ATOM      7  O   GLU     4      29.950  25.500  29.100  1.00  0.00    -0.268 OA
BRANCH   6   8
ATOM      8  CA  GLU     4      28.290  23.850  29.600  1.00  0.00     0.187 C 
BRANCH   8   9
ATOM      9  N   GLU     4      27.190  24.000  30.570  1.00  0.00    -0.229 NA
ATOM     10  C   PRO     3      27.290  24.740  31.670  1.00  0.00     0.272 C 
ATOM     11  O   PRO     3      28.240  25.480  31.900  1.00  0.00    -0.269 OA
BRANCH  10  12
ATOM     12  CA  PRO     3      26.030  24.870  32.550  1.00  0.00     0.165 C 
ATOM     13  N   PRO     3      24.800  25.230  31.820  1.00  0.00    -0.312 N 
ATOM     14  C   ASP     2      24.720  26.240  30.930  1.00  0.00     0.257 C 
ATOM     15  CD  PRO     3      23.660  24.450  32.340  1.00  0.00     0.105 C 
ATOM     16  O   ASP     2      25.680  26.990  30.700  1.00  0.00    -0.270 OA
ATOM     17  CG  PRO     3      24.210  23.740  33.580  1.00  0.00     0.027 C 
ATOM     18  CB  PRO     3      25.690  23.550  33.250  1.00  0.00     0.034 C 
BRANCH  14  19
ATOM     19  CA  ASP     2      23.360  26.550  30.280  1.00  0.00     0.195 C 
BRANCH  19  20
ATOM     20  CB  ASP     2      23.070  25.720  29.010  1.00  0.00     0.132 C 
BRANCH  20  21
ATOM     21  CG  ASP     2      21.910  26.340  28.210  1.00  0.00     0.188 C 
ATOM     22  OD2 ASP     2      22.230  27.220  27.380  1.00  0.00    -0.647 OA
ATOM     23  OD1 ASP     2      20.790  26.310  28.750  1.00  0.00    -0.647 OA
ENDBRANCH  20  21
ENDBRANCH  19  20
BRANCH  19  24
ATOM     24  N   ASP     2      23.240  27.950  29.840  1.00  0.00    -0.228 NA
ATOM     25  C   TYR     1      23.180  29.030  30.580  1.00  0.00     0.289 C 
ATOM     26  O   TYR     1      23.120  29.090  31.800  1.00  0.00    -0.268 OA
BRANCH  25  27
ATOM     27  CA  TYR     1      22.940  30.290  29.760  1.00  0.00     0.385 C 
ATOM     28  N   TYR     1      21.930  31.070  30.510  1.00  0.00     0.626 N 
BRANCH  27  29
ATOM     29  CB  TYR     1      24.260  31.040  29.660  1.00  0.00     0.075 C 
BRANCH  29  30
ATOM     30  CG  TYR     1      24.200  32.320  28.830  1.00  0.00    -0.019 A 
ATOM     31  CD2 TYR     1      23.990  32.270  27.450  1.00  0.00    -0.002 A 
ATOM     32  CE2 TYR     1      24.100  33.430  26.690  1.00  0.00     0.027 A 
ATOM     33  CZ  TYR     1      24.420  34.630  27.310  1.00  0.00     0.131 A 
ATOM     34  OH  TYR     1      24.420  35.790  26.610  1.00  0.00    -0.190 OA
ATOM     35  CE1 TYR     1      24.630  34.680  28.680  1.00  0.00     0.027 A 
ATOM     36  CD1 TYR     1      24.530  33.530  29.440  1.00  0.00    -0.002 A 
ENDBRANCH  29  30
ENDBRANCH  27  29
ENDBRANCH  25  27
ENDBRANCH  19  24
ENDBRANCH  14  19
ENDBRANCH  10  12
ENDBRANCH   8   9
BRANCH   8  37
ATOM     37  CB  GLU     4      27.900  22.870  28.490  1.00  0.00     0.045 C 
BRANCH  37  38
ATOM     38  CG  GLU     4      27.590  21.490  29.080  1.00  0.00     0.100 C 
BRANCH  38  39
ATOM     39  CD  GLU     4      27.150  20.480  28.020  1.00  0.00     0.185 C 
ATOM     40  OE2 GLU     4      27.400  19.280  28.280  1.00  0.00    -0.647 OA
ATOM     41  OE1 GLU     4      26.550  20.910  27.010  1.00  0.00    -0.647 OA
ENDBRANCH  38  39
ENDBRANCH  37  38
ENDBRANCH   8  37
ENDBRANCH   6   8
ENDBRANCH   4   5
BRANCH   4  42
ATOM     42  CB  TYR     5      26.840  28.130  27.620  1.00  0.00     0.060 C 
BRANCH  42  43
ATOM     43  CG  TYR     5      27.150  29.500  26.990  1.00  0.00    -0.020 A 
ATOM     44  CD1 TYR     5      27.340  29.620  25.620  1.00  0.00    -0.002 A 
ATOM     45  CE1 TYR     5      27.550  30.860  25.040  1.00  0.00     0.027 A 
ATOM     46  CZ  TYR     5      27.570  32.000  25.830  1.00  0.00     0.131 A 
ATOM     47  CE2 TYR     5      27.420  31.890  27.210  1.00  0.00     0.027 A 
ATOM     48  OH  TYR     5      27.490  33.230  25.260  1.00  0.00    -0.190 OA
ATOM     49  CD2 TYR     5      27.210  30.640  27.780  1.00  0.00    -0.002 A 
ENDBRANCH  42  43
ENDBRANCH   4  42
ENDBRANCH   1   4
BRANCH   3  50
ATOM     50  CA  ARG     6      28.880  28.940  31.510  1.00  0.00     0.186 C 
BRANCH  50  51
ATOM     51  CB  ARG     6      27.880  29.060  32.660  1.00  0.00     0.036 C 
BRANCH  51  52
ATOM     52  CG  ARG     6      26.840  30.150  32.390  1.00  0.00     0.029 C 
BRANCH  52  53
ATOM     53  CD  ARG     6      27.380  31.580  32.550  1.00  0.00     0.145 C 
BRANCH  53  54
ATOM     54  NE  ARG     6      28.160  32.100  31.400  1.00  0.00    -0.083 NA
ATOM     55  CZ  ARG     6      28.490  33.390  31.230  1.00  0.00     0.782 C 
ATOM     56  NH1 ARG     6      28.260  34.310  32.170  1.00  0.00     0.063 N 
ATOM     57  NH2 ARG     6      29.160  33.760  30.150  1.00  0.00     0.063 N 
ENDBRANCH  53  54
ENDBRANCH  52  53
ENDBRANCH  51  52
ENDBRANCH  50  51
BRANCH  50  58
ATOM     58  C   ARG     6      30.260  28.520  32.030  1.00  0.00     0.274 C 
ATOM     59  N   ASN     7      30.590  27.240  31.850  1.00  0.00    -0.228 NA
ATOM     60  O   ARG     6      30.880  29.290  32.770  1.00  0.00    -0.268 OA
BRANCH  59  61
ATOM     61  CA  ASN     7      31.940  26.700  32.100  1.00  0.00     0.196 C 
BRANCH  61  62
ATOM     62  CB  ASN     7      31.870  25.190  32.340  1.00  0.00     0.126 C 
BRANCH  62  63
ATOM     63  CG  ASN     7      31.020  24.780  33.550  1.00  0.00     0.276 C 
ATOM     64  ND2 ASN     7      30.470  23.590  33.490  1.00  0.00    -0.107 N 
ATOM     65  OD1 ASN     7      30.790  25.480  34.520  1.00  0.00    -0.269 OA
ENDBRANCH  62  63
ENDBRANCH  61  62
BRANCH  61  66
ATOM     66  C   ASN     7      32.990  26.990  31.000  1.00  0.00     0.275 C 
ATOM     67  O   ASN     7      34.190  26.900  31.270  1.00  0.00    -0.268 OA
ATOM     68  N   PHE     8      32.530  27.230  29.770  1.00  0.00    -0.228 NA
BRANCH  68  69
ATOM     69  CA  PHE     8      33.410  27.440  28.600  1.00  0.00     0.191 C 
BRANCH  69  70
ATOM     70  CB  PHE     8      33.030  26.390  27.540  1.00  0.00     0.060 C 
BRANCH  70  71
ATOM     71  CG  PHE     8      33.940  26.200  26.320  1.00  0.00    -0.020 A 
ATOM     72  CD2 PHE     8      33.340  25.780  25.130  1.00  0.00    -0.004 A 
ATOM     73  CE2 PHE     8      34.100  25.550  23.990  1.00  0.00    -0.000 A 
ATOM     74  CZ  PHE     8      35.480  25.730  24.030  1.00  0.00    -0.000 A 
ATOM     75  CE1 PHE     8      36.080  26.140  25.220  1.00  0.00    -0.000 A 
ATOM     76  CD1 PHE     8      35.320  26.370  26.360  1.00  0.00    -0.004 A 
ENDBRANCH  70  71
ENDBRANCH  69  70
BRANCH  69  77
ATOM     77  C   PHE     8      33.430  28.880  28.010  1.00  0.00     0.275 C 
ATOM     78  O   PHE     8      34.490  29.310  27.540  1.00  0.00    -0.268 OA
ATOM     79  N   TRP     9      32.310  29.600  28.080  1.00  0.00    -0.227 NA
BRANCH  79  80
ATOM     80  CA  TRP     9      32.140  30.990  27.600  1.00  0.00     0.197 C 
BRANCH  80  81
ATOM     81  C   TRP     9      31.350  31.820  28.630  1.00  0.00     0.209 C 
ATOM     82  O1  TRP     9      30.400  31.270  29.250  1.00  0.00    -0.646 OA
ATOM     83  O2  TRP     9      31.570  33.050  28.660  1.00  0.00    -0.646 OA
ENDBRANCH  80  81
BRANCH  80  84
ATOM     84  CB  TRP     9      31.350  31.050  26.290  1.00  0.00     0.064 C 
BRANCH  84  85
ATOM     85  CG  TRP     9      31.860  30.210  25.130  1.00  0.00     0.001 A 
ATOM     86  CD2 TRP     9      31.330  29.000  24.730  1.00  0.00     0.015 A 
ATOM     87  CE3 TRP     9      30.440  28.130  25.330  1.00  0.00     0.001 A 
ATOM     88  CE2 TRP     9      31.810  28.740  23.460  1.00  0.00     0.081 A 
ATOM     89  CZ3 TRP     9      29.980  27.010  24.650  1.00  0.00     0.000 A 
ATOM     90  CH2 TRP     9      30.430  26.760  23.360  1.00  0.00     0.002 A 
ATOM     91  CZ2 TRP     9      31.350  27.620  22.770  1.00  0.00     0.019 A 
ATOM     92  NE1 TRP     9      32.650  29.730  23.150  1.00  0.00    -0.244 NA
ATOM     93  CD1 TRP     9      32.680  30.610  24.160  1.00  0.00     0.095 A 
ENDBRANCH  84  85
ENDBRANCH  80  84
ENDBRANCH  79  80
ENDBRANCH  69  77
ENDBRANCH  68  69
ENDBRANCH  61  66
ENDBRANCH  59  61
ENDBRANCH  50  58
ENDBRANCH   3  50
TORSDOF 35
