REMARK  30 active torsions:
REMARK  status: ('A' for Active; 'I' for Inactive)
REMARK    1  A    between atoms: CA_2  and  C_4 
REMARK       I    between atoms: C_4  and  N_6 
REMARK    2  A    between atoms: N_6  and  CA_7 
REMARK    3  A    between atoms: CA_7  and  CB_8 
REMARK    4  A    between atoms: CA_7  and  C_15 
REMARK    5  A    between atoms: CB_8  and  CG_9 
REMARK    6  A    between atoms: CG_9  and  CD_10 
REMARK    7  A    between atoms: CD_10  and  NE_11 
REMARK       I    between atoms: C_15  and  N_17 
REMARK    8  A    between atoms: N_17  and  CA_18 
REMARK    9  A    between atoms: CA_18  and  C_23 
REMARK   10  A    between atoms: CA_18  and  CB_19 
REMARK   11  A    between atoms: CB_19  and  CG_20 
REMARK       I    between atoms: C_23  and  N_25 
REMARK   12  A    between atoms: N_25  and  CA_26 
REMARK   13  A    between atoms: CA_26  and  C_34 
REMARK   14  A    between atoms: CA_26  and  CB_27 
REMARK   15  A    between atoms: CB_27  and  CG_28 
REMARK   16  A    between atoms: CG_28  and  CD_29 
REMARK   17  A    between atoms: CD_29  and  NE_30 
REMARK       I    between atoms: C_34  and  N_36 
REMARK   18  A    between atoms: N_36  and  CA_37 
REMARK   19  A    between atoms: CA_37  and  C_48 
REMARK   20  A    between atoms: CA_37  and  CB_38 
REMARK   21  A    between atoms: CB_38  and  CG_39 
REMARK       I    between atoms: C_48  and  N_50 
REMARK   22  A    between atoms: N_50  and  CA_51 
REMARK   23  A    between atoms: CA_51  and  C_56 
REMARK   24  A    between atoms: CA_51  and  CB_52 
REMARK   25  A    between atoms: CB_52  and  CG_53 
REMARK       I    between atoms: C_56  and  N_58 
REMARK   26  A    between atoms: N_58  and  CA_59 
REMARK   27  A    between atoms: CA_59  and  CB_60 
REMARK   28  A    between atoms: CA_59  and  C_65 
REMARK   29  A    between atoms: CB_60  and  CG_61 
REMARK   30  A    between atoms: CG_61  and  CD_62 
ROOT
ATOM      1  C   ARG     4      31.300  27.900  28.220  1.00  0.00     0.274 C 
ATOM      2  O   ARG     4      31.990  27.000  27.750  1.00  0.00    -0.268 OA
ATOM      3  N   TRP     5      29.970  27.870  28.170  1.00  0.00    -0.228 NA
ENDROOT
BRANCH   1   4
ATOM      4  CA  ARG     4      31.890  28.840  29.310  1.00  0.00     0.186 C 
BRANCH   4   5
ATOM      5  CB  ARG     4      32.880  28.050  30.180  1.00  0.00     0.036 C 
BRANCH   5   6
ATOM      6  CG  ARG     4      33.780  28.900  31.070  1.00  0.00     0.029 C 
BRANCH   6   7
ATOM      7  CD  ARG     4      34.820  29.710  30.290  1.00  0.00     0.145 C 
BRANCH   7   8
ATOM      8  NE  ARG     4      35.720  30.390  31.250  1.00  0.00    -0.083 NA
ATOM      9  CZ  ARG     4      36.410  31.520  31.050  1.00  0.00     0.782 C 
ATOM     10  NH1 ARG     4      36.300  32.270  29.950  1.00  0.00     0.063 N 
ATOM     11  NH2 ARG     4      37.250  31.950  32.000  1.00  0.00     0.063 N 
ENDBRANCH   7   8
ENDBRANCH   6   7
ENDBRANCH   5   6
ENDBRANCH   4   5
BRANCH   4  12
ATOM     12  N   ARG     4      30.920  29.520  30.210  1.00  0.00    -0.229 NA
ATOM     13  C   LEU     3      30.110  30.540  29.880  1.00  0.00     0.274 C 
ATOM     14  O   LEU     3      29.730  30.690  28.730  1.00  0.00    -0.268 OA
BRANCH  13  15
ATOM     15  CA  LEU     3      29.170  31.030  31.000  1.00  0.00     0.186 C 
BRANCH  15  16
ATOM     16  N   LEU     3      28.400  29.970  31.690  1.00  0.00    -0.229 NA
ATOM     17  C   ARG     2      27.750  28.980  31.070  1.00  0.00     0.274 C 
ATOM     18  O   ARG     2      27.640  28.900  29.850  1.00  0.00    -0.268 OA
BRANCH  17  19
ATOM     19  CA  ARG     2      27.110  27.860  31.920  1.00  0.00     0.186 C 
BRANCH  19  20
ATOM     20  N   ARG     2      27.940  27.080  32.870  1.00  0.00    -0.229 NA
ATOM     21  C   ALA     1      29.250  26.840  32.760  1.00  0.00     0.289 C 
ATOM     22  O   ALA     1      30.030  27.640  32.260  1.00  0.00    -0.268 OA
BRANCH  21  23
ATOM     23  CA  ALA     1      29.920  25.880  33.770  1.00  0.00     0.381 C 
ATOM     24  CB  ALA     1      28.930  25.080  34.630  1.00  0.00     0.052 C 
ATOM     25  N   ALA     1      30.780  26.710  34.640  1.00  0.00     0.626 N 
ENDBRANCH  21  23
ENDBRANCH  19  20
BRANCH  19  26
ATOM     26  CB  ARG     2      25.840  28.360  32.640  1.00  0.00     0.036 C 
BRANCH  26  27
ATOM     27  CG  ARG     2      24.750  28.910  31.710  1.00  0.00     0.029 C 
BRANCH  27  28
ATOM     28  CD  ARG     2      24.220  27.850  30.740  1.00  0.00     0.145 C 
BRANCH  28  29
ATOM     29  NE  ARG     2      23.270  28.460  29.790  1.00  0.00    -0.083 NA
ATOM     30  CZ  ARG     2      22.680  27.850  28.750  1.00  0.00     0.782 C 
ATOM     31  NH1 ARG     2      22.930  26.570  28.460  1.00  0.00     0.063 N 
ATOM     32  NH2 ARG     2      21.830  28.530  27.980  1.00  0.00     0.063 N 
ENDBRANCH  28  29
ENDBRANCH  27  28
ENDBRANCH  26  27
ENDBRANCH  19  26
ENDBRANCH  17  19
ENDBRANCH  15  16
BRANCH  15  33
ATOM     33  CB  LEU     3      29.920  31.840  32.070  1.00  0.00     0.034 C 
BRANCH  33  34
ATOM     34  CG  LEU     3      30.410  33.210  31.590  1.00  0.00     0.002 C 
ATOM     35  CD2 LEU     3      31.330  33.830  32.640  1.00  0.00     0.000 C 
ATOM     36  CD1 LEU     3      29.240  34.140  31.250  1.00  0.00     0.000 C 
ENDBRANCH  33  34
ENDBRANCH  15  33
ENDBRANCH  13  15
ENDBRANCH   4  12
ENDBRANCH   1   4
BRANCH   3  37
ATOM     37  CA  TRP     5      29.150  27.190  27.140  1.00  0.00     0.191 C 
BRANCH  37  38
ATOM     38  C   TRP     5      28.410  28.200  26.230  1.00  0.00     0.275 C 
ATOM     39  O   TRP     5      27.830  27.830  25.210  1.00  0.00    -0.268 OA
ATOM     40  N   LEU     6      28.200  29.410  26.770  1.00  0.00    -0.229 NA
BRANCH  40  41
ATOM     41  CA  LEU     6      27.560  30.560  26.090  1.00  0.00     0.186 C 
BRANCH  41  42
ATOM     42  C   LEU     6      28.560  31.470  25.340  1.00  0.00     0.274 C 
ATOM     43  O   LEU     6      28.090  32.380  24.660  1.00  0.00    -0.268 OA
ATOM     44  N   GLU     7      29.780  31.500  25.890  1.00  0.00    -0.227 NA
BRANCH  44  45
ATOM     45  CA  GLU     7      30.990  32.040  25.240  1.00  0.00     0.193 C 
BRANCH  45  46
ATOM     46  CB  GLU     7      32.180  31.890  26.190  1.00  0.00     0.047 C 
BRANCH  46  47
ATOM     47  CG  GLU     7      32.090  32.670  27.510  1.00  0.00     0.100 C 
BRANCH  47  48
ATOM     48  CD  GLU     7      33.180  32.240  28.520  1.00  0.00     0.185 C 
ATOM     49  OE1 GLU     7      34.240  31.780  28.070  1.00  0.00    -0.647 OA
ATOM     50  OE2 GLU     7      32.940  32.290  29.750  1.00  0.00    -0.647 OA
ENDBRANCH  47  48
ENDBRANCH  46  47
ENDBRANCH  45  46
BRANCH  45  51
ATOM     51  C   GLU     7      31.310  31.210  23.970  1.00  0.00     0.209 C 
ATOM     52  O1  GLU     7      31.090  29.980  24.020  1.00  0.00    -0.646 OA
ATOM     53  O2  GLU     7      31.820  31.820  23.010  1.00  0.00    -0.646 OA
ENDBRANCH  45  51
ENDBRANCH  44  45
ENDBRANCH  41  42
BRANCH  41  54
ATOM     54  CB  LEU     6      26.810  31.420  27.120  1.00  0.00     0.034 C 
BRANCH  54  55
ATOM     55  CG  LEU     6      25.530  30.800  27.660  1.00  0.00     0.002 C 
ATOM     56  CD2 LEU     6      24.450  30.730  26.580  1.00  0.00     0.000 C 
ATOM     57  CD1 LEU     6      25.020  31.630  28.840  1.00  0.00     0.000 C 
ENDBRANCH  54  55
ENDBRANCH  41  54
ENDBRANCH  40  41
ENDBRANCH  37  38
BRANCH  37  58
ATOM     58  CB  TRP     5      28.170  26.280  27.900  1.00  0.00     0.062 C 
BRANCH  58  59
ATOM     59  CG  TRP     5      27.310  25.360  27.020  1.00  0.00     0.001 A 
ATOM     60  CD1 TRP     5      27.730  24.240  26.430  1.00  0.00     0.095 A 
ATOM     61  NE1 TRP     5      26.820  23.830  25.550  1.00  0.00    -0.244 NA
ATOM     62  CE2 TRP     5      25.780  24.670  25.570  1.00  0.00     0.081 A 
ATOM     63  CD2 TRP     5      26.070  25.660  26.480  1.00  0.00     0.015 A 
ATOM     64  CZ2 TRP     5      24.690  24.810  24.720  1.00  0.00     0.019 A 
ATOM     65  CE3 TRP     5      25.300  26.820  26.520  1.00  0.00     0.001 A 
ATOM     66  CZ3 TRP     5      24.230  26.980  25.650  1.00  0.00     0.000 A 
ATOM     67  CH2 TRP     5      23.910  25.960  24.760  1.00  0.00     0.002 A 
ENDBRANCH  58  59
ENDBRANCH  37  58
ENDBRANCH   3  37
TORSDOF 30
