REMARK  32 active torsions:
REMARK  status: ('A' for Active; 'I' for Inactive)
REMARK    1  A    between atoms: CA_2  and  CB_3 
REMARK    2  A    between atoms: CA_2  and  C_7 
REMARK    3  A    between atoms: CB_3  and  CG_4 
REMARK       I    between atoms: C_7  and  N_9 
REMARK    4  A    between atoms: N_9  and  CA_10 
REMARK    5  A    between atoms: CA_10  and  CB_11 
REMARK    6  A    between atoms: CA_10  and  C_15 
REMARK    7  A    between atoms: CB_11  and  CG_12 
REMARK       I    between atoms: C_15  and  N_17 
REMARK    8  A    between atoms: N_17  and  CA_18 
REMARK    9  A    between atoms: CA_18  and  CB_19 
REMARK   10  A    between atoms: CA_18  and  C_26 
REMARK   11  A    between atoms: CB_19  and  CG_20 
REMARK   12  A    between atoms: CG_20  and  CD_21 
REMARK   13  A    between atoms: CD_21  and  NE_22 
REMARK       I    between atoms: C_26  and  N_28 
REMARK   14  A    between atoms: N_28  and  CA_29 
REMARK   15  A    between atoms: CA_29  and  CB_30 
REMARK   16  A    between atoms: CA_29  and  C_33 
REMARK       I    between atoms: C_33  and  N_35 
REMARK   17  A    between atoms: N_35  and  CA_36 
REMARK   18  A    between atoms: CA_36  and  CB_37 
REMARK   19  A    between atoms: CA_36  and  C_39 
REMARK       I    between atoms: C_39  and  N_41 
REMARK   20  A    between atoms: N_41  and  CA_42 
REMARK   21  A    between atoms: CA_42  and  CB_43 
REMARK   22  A    between atoms: CA_42  and  C_47 
REMARK   23  A    between atoms: CB_43  and  CG_44 
REMARK       I    between atoms: C_47  and  N_49 
REMARK   24  A    between atoms: N_49  and  CA_50 
REMARK   25  A    between atoms: CA_50  and  CB_51 
REMARK   26  A    between atoms: CA_50  and  C_56 
REMARK   27  A    between atoms: CB_51  and  CG_52 
REMARK   28  A    between atoms: CG_52  and  CD_53 
REMARK       I    between atoms: C_56  and  N_58 
REMARK   29  A    between atoms: N_58  and  CA_59 
REMARK   30  A    between atoms: CA_59  and  CB_60 
REMARK   31  A    between atoms: CA_59  and  C_66 
REMARK   32  A    between atoms: CB_60  and  CG_61 
ROOT
ATOM      1  C   VAL     4      30.600  33.180  28.290  1.00  0.00     0.274 C 
ATOM      2  O   VAL     4      31.240  32.720  29.230  1.00  0.00    -0.268 OA
ATOM      3  N   SER     5      30.920  34.310  27.680  1.00  0.00    -0.226 NA
ENDROOT
BRANCH   1   4
ATOM      4  CA  VAL     4      29.480  32.340  27.660  1.00  0.00     0.186 C 
BRANCH   4   5
ATOM      5  N   VAL     4      29.480  30.920  28.110  1.00  0.00    -0.229 NA
ATOM      6  C   ARG     3      29.630  29.880  27.300  1.00  0.00     0.274 C 
ATOM      7  O   ARG     3      29.820  29.980  26.090  1.00  0.00    -0.268 OA
BRANCH   6   8
ATOM      8  CA  ARG     3      29.530  28.490  27.970  1.00  0.00     0.186 C 
BRANCH   8   9
ATOM      9  N   ARG     3      28.150  27.950  27.960  1.00  0.00    -0.229 NA
ATOM     10  C   LEU     2      27.570  27.360  29.000  1.00  0.00     0.274 C 
ATOM     11  O   LEU     2      28.210  26.740  29.850  1.00  0.00    -0.268 OA
BRANCH  10  12
ATOM     12  CA  LEU     2      26.090  26.970  28.750  1.00  0.00     0.186 C 
BRANCH  12  13
ATOM     13  N   LEU     2      25.710  25.810  29.590  1.00  0.00    -0.229 NA
ATOM     14  C   ASN     1      25.570  24.590  29.090  1.00  0.00     0.289 C 
ATOM     15  O   ASN     1      26.090  24.240  28.040  1.00  0.00    -0.268 OA
BRANCH  14  16
ATOM     16  CA  ASN     1      25.140  23.450  30.020  1.00  0.00     0.390 C 
ATOM     17  N   ASN     1      26.330  22.820  30.610  1.00  0.00     0.627 N 
BRANCH  16  18
ATOM     18  CB  ASN     1      24.110  23.850  31.100  1.00  0.00     0.141 C 
BRANCH  18  19
ATOM     19  CG  ASN     1      23.530  22.600  31.780  1.00  0.00     0.277 C 
ATOM     20  OD1 ASN     1      24.140  21.550  31.830  1.00  0.00    -0.269 OA
ATOM     21  ND2 ASN     1      22.340  22.680  32.340  1.00  0.00    -0.107 N 
ENDBRANCH  18  19
ENDBRANCH  16  18
ENDBRANCH  14  16
ENDBRANCH  12  13
BRANCH  12  22
ATOM     22  CB  LEU     2      25.110  28.100  29.080  1.00  0.00     0.034 C 
BRANCH  22  23
ATOM     23  CG  LEU     2      25.010  29.200  28.020  1.00  0.00     0.002 C 
ATOM     24  CD1 LEU     2      24.560  28.650  26.660  1.00  0.00     0.000 C 
ATOM     25  CD2 LEU     2      24.040  30.290  28.500  1.00  0.00     0.000 C 
ENDBRANCH  22  23
ENDBRANCH  12  22
ENDBRANCH  10  12
ENDBRANCH   8   9
BRANCH   8  26
ATOM     26  CB  ARG     3      30.460  27.480  27.280  1.00  0.00     0.036 C 
BRANCH  26  27
ATOM     27  CG  ARG     3      30.870  26.270  28.130  1.00  0.00     0.029 C 
BRANCH  27  28
ATOM     28  CD  ARG     3      32.000  26.570  29.120  1.00  0.00     0.145 C 
BRANCH  28  29
ATOM     29  NE  ARG     3      31.550  27.090  30.420  1.00  0.00    -0.083 NA
ATOM     30  CZ  ARG     3      32.360  27.650  31.330  1.00  0.00     0.782 C 
ATOM     31  NH1 ARG     3      33.620  27.980  31.050  1.00  0.00     0.063 N 
ATOM     32  NH2 ARG     3      31.900  27.900  32.560  1.00  0.00     0.063 N 
ENDBRANCH  28  29
ENDBRANCH  27  28
ENDBRANCH  26  27
ENDBRANCH   8  26
ENDBRANCH   6   8
ENDBRANCH   4   5
BRANCH   4  33
ATOM     33  CB  VAL     4      28.120  33.020  27.900  1.00  0.00     0.032 C 
ATOM     34  CG1 VAL     4      27.050  32.460  26.950  1.00  0.00     0.003 C 
ATOM     35  CG2 VAL     4      27.660  32.920  29.360  1.00  0.00     0.003 C 
ENDBRANCH   4  33
ENDBRANCH   1   4
BRANCH   3  36
ATOM     36  CA  SER     5      31.940  35.280  28.160  1.00  0.00     0.219 C 
BRANCH  36  37
ATOM     37  CB  SER     5      32.140  36.390  27.120  1.00  0.00     0.216 C 
ATOM     38  OG  SER     5      32.160  35.840  25.800  1.00  0.00    -0.218 OA
ENDBRANCH  36  37
BRANCH  36  39
ATOM     39  C   SER     5      31.560  35.920  29.510  1.00  0.00     0.277 C 
ATOM     40  O   SER     5      30.990  37.020  29.540  1.00  0.00    -0.268 OA
ATOM     41  N   LEU     6      31.960  35.240  30.580  1.00  0.00    -0.229 NA
BRANCH  41  42
ATOM     42  CA  LEU     6      31.550  35.420  32.000  1.00  0.00     0.186 C 
BRANCH  42  43
ATOM     43  CB  LEU     6      30.060  35.790  32.160  1.00  0.00     0.034 C 
BRANCH  43  44
ATOM     44  CG  LEU     6      29.670  36.260  33.580  1.00  0.00     0.002 C 
ATOM     45  CD2 LEU     6      28.150  36.360  33.700  1.00  0.00     0.000 C 
ATOM     46  CD1 LEU     6      30.340  37.580  33.930  1.00  0.00     0.000 C 
ENDBRANCH  43  44
ENDBRANCH  42  43
BRANCH  42  47
ATOM     47  C   LEU     6      31.810  34.100  32.760  1.00  0.00     0.274 C 
ATOM     48  N   GLU     7      31.210  33.040  32.210  1.00  0.00    -0.229 NA
ATOM     49  O   LEU     6      32.310  34.090  33.880  1.00  0.00    -0.268 OA
BRANCH  48  50
ATOM     50  CA  GLU     7      31.460  31.630  32.560  1.00  0.00     0.187 C 
BRANCH  50  51
ATOM     51  CB  GLU     7      30.450  30.760  31.800  1.00  0.00     0.045 C 
BRANCH  51  52
ATOM     52  CG  GLU     7      29.060  30.760  32.430  1.00  0.00     0.100 C 
BRANCH  52  53
ATOM     53  CD  GLU     7      28.660  29.360  32.940  1.00  0.00     0.185 C 
ATOM     54  OE2 GLU     7      28.040  29.310  34.010  1.00  0.00    -0.647 OA
ATOM     55  OE1 GLU     7      28.930  28.370  32.220  1.00  0.00    -0.647 OA
ENDBRANCH  52  53
ENDBRANCH  51  52
ENDBRANCH  50  51
BRANCH  50  56
ATOM     56  C   GLU     7      32.890  31.150  32.200  1.00  0.00     0.274 C 
ATOM     57  O   GLU     7      33.400  30.250  32.860  1.00  0.00    -0.268 OA
ATOM     58  N   HIS     8      33.320  31.510  31.000  1.00  0.00    -0.227 NA
BRANCH  58  59
ATOM     59  CA  HIS     8      34.710  31.310  30.550  1.00  0.00     0.199 C 
BRANCH  59  60
ATOM     60  CB  HIS     8      34.880  31.270  29.020  1.00  0.00     0.083 C 
BRANCH  60  61
ATOM     61  CG  HIS     8      33.880  30.490  28.170  1.00  0.00     0.083 A 
ATOM     62  ND1 HIS     8      33.940  29.180  27.890  1.00  0.00    -0.227 NA
ATOM     63  CE1 HIS     8      33.400  29.000  26.680  1.00  0.00     0.199 A 
ATOM     64  NE2 HIS     8      32.930  30.170  26.250  1.00  0.00    -0.221 NA
ATOM     65  CD2 HIS     8      33.230  31.080  27.170  1.00  0.00     0.116 A 
ENDBRANCH  60  61
ENDBRANCH  59  60
BRANCH  59  66
ATOM     66  C   HIS     8      35.490  32.570  30.970  1.00  0.00     0.209 C 
ATOM     67  O1  HIS     8      34.890  33.660  30.820  1.00  0.00    -0.646 OA
ATOM     68  O2  HIS     8      36.680  32.410  31.300  1.00  0.00    -0.646 OA
ENDBRANCH  59  66
ENDBRANCH  58  59
ENDBRANCH  50  56
ENDBRANCH  48  50
ENDBRANCH  42  47
ENDBRANCH  41  42
ENDBRANCH  36  39
ENDBRANCH   3  36
TORSDOF 32
