REMARK  28 active torsions:
REMARK  status: ('A' for Active; 'I' for Inactive)
REMARK    1  A    between atoms: CA_2  and  C_7 
REMARK    2  A    between atoms: CA_2  and  CB_3 
REMARK    3  A    between atoms: CB_3  and  CG_4 
REMARK       I    between atoms: C_7  and  N_9 
REMARK    4  A    between atoms: N_9  and  CA_10 
REMARK    5  A    between atoms: CA_10  and  CB_11 
REMARK    6  A    between atoms: CA_10  and  C_21 
REMARK    7  A    between atoms: CB_11  and  CG_12 
REMARK       I    between atoms: C_21  and  N_23 
REMARK    8  A    between atoms: N_23  and  CA_24 
REMARK    9  A    between atoms: CA_24  and  C_32 
REMARK   10  A    between atoms: CA_24  and  CB_25 
REMARK   11  A    between atoms: CB_25  and  CG_26 
REMARK   12  A    between atoms: CG_26  and  CD_27 
REMARK   13  A    between atoms: CD_27  and  NE_28 
REMARK       I    between atoms: C_32  and  N_34 
REMARK   14  A    between atoms: N_34  and  CA_35 
REMARK   15  A    between atoms: CA_35  and  CB_36 
REMARK   16  A    between atoms: CA_35  and  C_41 
REMARK   17  A    between atoms: CB_36  and  CG_37 
REMARK   18  A    between atoms: CG_37  and  CD_38 
REMARK       I    between atoms: C_41  and  N_43 
REMARK   19  A    between atoms: N_43  and  CA_44 
REMARK   20  A    between atoms: CA_44  and  C_52 
REMARK   21  A    between atoms: CA_44  and  CB_45 
REMARK   22  A    between atoms: CB_45  and  CG_46 
REMARK       I    between atoms: C_52  and  N_54 
REMARK   23  A    between atoms: N_54  and  CA_55 
REMARK   24  A    between atoms: CA_55  and  C_63 
REMARK   25  A    between atoms: CA_55  and  CB_56 
REMARK   26  A    between atoms: CB_56  and  CG_57 
REMARK   27  A    between atoms: CG_57  and  CD_58 
REMARK   28  A    between atoms: CD_58  and  NE_59 
ROOT
ATOM      1  C   ARG     3      26.840  31.780  28.790  1.00  0.00     0.274 C 
ATOM      2  O   ARG     3      25.980  32.470  28.250  1.00  0.00    -0.268 OA
ATOM      3  N   GLN     4      28.040  32.270  29.100  1.00  0.00    -0.229 NA
ENDROOT
BRANCH   1   4
ATOM      4  CA  ARG     3      26.430  30.490  29.540  1.00  0.00     0.186 C 
BRANCH   4   5
ATOM      5  CB  ARG     3      25.220  30.830  30.420  1.00  0.00     0.036 C 
BRANCH   5   6
ATOM      6  CG  ARG     3      24.340  29.630  30.760  1.00  0.00     0.029 C 
BRANCH   6   7
ATOM      7  CD  ARG     3      23.140  30.100  31.580  1.00  0.00     0.145 C 
BRANCH   7   8
ATOM      8  NE  ARG     3      22.300  28.960  31.970  1.00  0.00    -0.083 NA
ATOM      9  CZ  ARG     3      21.230  29.030  32.780  1.00  0.00     0.782 C 
ATOM     10  NH2 ARG     3      20.630  27.900  33.180  1.00  0.00     0.063 N 
ATOM     11  NH1 ARG     3      20.790  30.200  33.270  1.00  0.00     0.063 N 
ENDBRANCH   7   8
ENDBRANCH   6   7
ENDBRANCH   5   6
ENDBRANCH   4   5
BRANCH   4  12
ATOM     12  N   ARG     3      27.440  29.750  30.350  1.00  0.00    -0.229 NA
ATOM     13  C   TRP     2      28.620  29.270  29.940  1.00  0.00     0.275 C 
ATOM     14  O   TRP     2      29.200  29.670  28.940  1.00  0.00    -0.268 OA
BRANCH  13  15
ATOM     15  CA  TRP     2      29.500  28.680  31.060  1.00  0.00     0.191 C 
BRANCH  15  16
ATOM     16  N   TRP     2      29.790  29.620  32.180  1.00  0.00    -0.228 NA
ATOM     17  C   ASN     1      30.300  30.850  31.990  1.00  0.00     0.289 C 
ATOM     18  O   ASN     1      30.220  31.400  30.900  1.00  0.00    -0.268 OA
BRANCH  17  19
ATOM     19  CA  ASN     1      30.730  31.720  33.200  1.00  0.00     0.390 C 
ATOM     20  N   ASN     1      31.170  31.030  34.420  1.00  0.00     0.627 N 
BRANCH  19  21
ATOM     21  CB  ASN     1      31.850  32.690  32.770  1.00  0.00     0.141 C 
BRANCH  21  22
ATOM     22  CG  ASN     1      33.160  31.980  32.400  1.00  0.00     0.277 C 
ATOM     23  OD1 ASN     1      33.440  30.870  32.830  1.00  0.00    -0.269 OA
ATOM     24  ND2 ASN     1      33.960  32.590  31.560  1.00  0.00    -0.107 N 
ENDBRANCH  21  22
ENDBRANCH  19  21
ENDBRANCH  17  19
ENDBRANCH  15  16
BRANCH  15  25
ATOM     25  CB  TRP     2      28.910  27.380  31.650  1.00  0.00     0.062 C 
BRANCH  25  26
ATOM     26  CG  TRP     2      28.700  26.250  30.620  1.00  0.00     0.001 A 
ATOM     27  CD2 TRP     2      27.520  25.960  29.950  1.00  0.00     0.015 A 
ATOM     28  CE2 TRP     2      27.810  24.950  29.050  1.00  0.00     0.081 A 
ATOM     29  CE3 TRP     2      26.240  26.490  30.020  1.00  0.00     0.001 A 
ATOM     30  CZ2 TRP     2      26.820  24.480  28.190  1.00  0.00     0.019 A 
ATOM     31  NE1 TRP     2      29.090  24.640  29.210  1.00  0.00    -0.244 NA
ATOM     32  CH2 TRP     2      25.550  25.020  28.240  1.00  0.00     0.002 A 
ATOM     33  CZ3 TRP     2      25.250  26.020  29.150  1.00  0.00     0.000 A 
ATOM     34  CD1 TRP     2      29.630  25.420  30.150  1.00  0.00     0.095 A 
ENDBRANCH  25  26
ENDBRANCH  15  25
ENDBRANCH  13  15
ENDBRANCH   4  12
ENDBRANCH   1   4
BRANCH   3  35
ATOM     35  CA  GLN     4      28.640  33.490  28.500  1.00  0.00     0.187 C 
BRANCH  35  36
ATOM     36  CB  GLN     4      29.150  34.380  29.640  1.00  0.00     0.044 C 
BRANCH  36  37
ATOM     37  CG  GLN     4      28.040  34.840  30.590  1.00  0.00     0.094 C 
BRANCH  37  38
ATOM     38  CD  GLN     4      28.610  35.490  31.850  1.00  0.00     0.274 C 
ATOM     39  NE2 GLN     4      28.220  36.710  32.110  1.00  0.00    -0.107 N 
ATOM     40  OE1 GLN     4      29.300  34.880  32.660  1.00  0.00    -0.269 OA
ENDBRANCH  37  38
ENDBRANCH  36  37
ENDBRANCH  35  36
BRANCH  35  41
ATOM     41  C   GLN     4      29.810  33.180  27.540  1.00  0.00     0.274 C 
ATOM     42  N   PHE     5      30.180  31.900  27.480  1.00  0.00    -0.228 NA
ATOM     43  O   GLN     4      30.460  34.090  27.030  1.00  0.00    -0.268 OA
BRANCH  42  44
ATOM     44  CA  PHE     5      31.310  31.360  26.690  1.00  0.00     0.191 C 
BRANCH  44  45
ATOM     45  C   PHE     5      30.900  30.230  25.710  1.00  0.00     0.275 C 
ATOM     46  O   PHE     5      31.630  29.930  24.780  1.00  0.00    -0.268 OA
ATOM     47  N   ARG     6      29.870  29.470  26.100  1.00  0.00    -0.227 NA
BRANCH  47  48
ATOM     48  CA  ARG     6      29.230  28.380  25.360  1.00  0.00     0.193 C 
BRANCH  48  49
ATOM     49  C   ARG     6      27.730  28.480  25.700  1.00  0.00     0.209 C 
ATOM     50  O2  ARG     6      26.920  27.910  24.950  1.00  0.00    -0.646 OA
ATOM     51  O1  ARG     6      27.450  29.030  26.800  1.00  0.00    -0.646 OA
ENDBRANCH  48  49
BRANCH  48  52
ATOM     52  CB  ARG     6      29.650  27.000  25.870  1.00  0.00     0.038 C 
BRANCH  52  53
ATOM     53  CG  ARG     6      31.120  26.650  25.610  1.00  0.00     0.030 C 
BRANCH  53  54
ATOM     54  CD  ARG     6      31.430  25.320  26.290  1.00  0.00     0.145 C 
BRANCH  54  55
ATOM     55  NE  ARG     6      32.880  25.110  26.330  1.00  0.00    -0.083 NA
ATOM     56  CZ  ARG     6      33.700  25.470  27.340  1.00  0.00     0.782 C 
ATOM     57  NH1 ARG     6      33.240  26.140  28.400  1.00  0.00     0.063 N 
ATOM     58  NH2 ARG     6      34.980  25.080  27.320  1.00  0.00     0.063 N 
ENDBRANCH  54  55
ENDBRANCH  53  54
ENDBRANCH  52  53
ENDBRANCH  48  52
ENDBRANCH  47  48
ENDBRANCH  44  45
BRANCH  44  59
ATOM     59  CB  PHE     5      32.370  30.900  27.710  1.00  0.00     0.060 C 
BRANCH  59  60
ATOM     60  CG  PHE     5      33.690  30.420  27.090  1.00  0.00    -0.020 A 
ATOM     61  CD2 PHE     5      33.830  29.080  26.740  1.00  0.00    -0.004 A 
ATOM     62  CE2 PHE     5      34.960  28.640  26.070  1.00  0.00    -0.000 A 
ATOM     63  CZ  PHE     5      35.970  29.550  25.770  1.00  0.00    -0.000 A 
ATOM     64  CE1 PHE     5      35.840  30.880  26.130  1.00  0.00    -0.000 A 
ATOM     65  CD1 PHE     5      34.700  31.320  26.790  1.00  0.00    -0.004 A 
ENDBRANCH  59  60
ENDBRANCH  44  59
ENDBRANCH  42  44
ENDBRANCH  35  41
ENDBRANCH   3  35
TORSDOF 28
