REMARK WARNING: 32 MAX_TORS EXCEEDED!!!
REMARK  37 active torsions:
REMARK  status: ('A' for Active; 'I' for Inactive)
REMARK    1  A    between atoms: CA_2  and  CB_3 
REMARK    2  A    between atoms: CA_2  and  C_11 
REMARK    3  A    between atoms: CB_3  and  CG_4 
REMARK       I    between atoms: C_11  and  N_13 
REMARK    4  A    between atoms: N_13  and  CA_14 
REMARK    5  A    between atoms: CA_14  and  CB_15 
REMARK    6  A    between atoms: CA_14  and  C_22 
REMARK    7  A    between atoms: CB_15  and  CG_16 
REMARK    8  A    between atoms: CG_16  and  CD_17 
REMARK    9  A    between atoms: CD_17  and  NE_18 
REMARK       I    between atoms: NE_18  and  CZ_19 
REMARK       I    between atoms: C_22  and  N_24 
REMARK   10  A    between atoms: N_24  and  CA_25 
REMARK   11  A    between atoms: CA_25  and  CB_26 
REMARK   12  A    between atoms: CA_25  and  C_28 
REMARK       I    between atoms: C_28  and  N_30 
REMARK   13  A    between atoms: N_30  and  CA_31 
REMARK   14  A    between atoms: CA_31  and  CB_32 
REMARK   15  A    between atoms: CA_31  and  C_39 
REMARK   16  A    between atoms: CB_32  and  CG_33 
REMARK   17  A    between atoms: CG_33  and  CD_34 
REMARK   18  A    between atoms: CD_34  and  NE_35 
REMARK       I    between atoms: NE_35  and  CZ_36 
REMARK       I    between atoms: C_39  and  N_41 
REMARK   19  A    between atoms: N_41  and  CA_42 
REMARK   20  A    between atoms: CA_42  and  CB_43 
REMARK   21  A    between atoms: CA_42  and  C_49 
REMARK   22  A    between atoms: CB_43  and  CG_44 
REMARK       I    between atoms: C_49  and  N_51 
REMARK   23  A    between atoms: CA_52  and  C_56 
REMARK       I    between atoms: C_56  and  N_58 
REMARK   24  A    between atoms: CA_59  and  C_63 
REMARK       I    between atoms: C_63  and  N_65 
REMARK   25  A    between atoms: N_65  and  CA_66 
REMARK   26  A    between atoms: CA_66  and  C_67 
REMARK       I    between atoms: C_67  and  N_69 
REMARK   27  A    between atoms: N_69  and  CA_70 
REMARK   28  A    between atoms: CA_70  and  CB_71 
REMARK   29  A    between atoms: CA_70  and  C_74 
REMARK       I    between atoms: C_74  and  N_76 
REMARK   30  A    between atoms: N_76  and  CA_77 
REMARK   31  A    between atoms: CA_77  and  CB_78 
REMARK   32  A    between atoms: CA_77  and  C_86 
REMARK   33  A    between atoms: CB_78  and  CG_79 
REMARK       I    between atoms: C_86  and  N_88 
REMARK   34  A    between atoms: N_88  and  CA_89 
REMARK   35  A    between atoms: CA_89  and  C_94 
REMARK   36  A    between atoms: CA_89  and  CB_90 
REMARK   37  A    between atoms: CB_90  and  CG_91 
ROOT
ATOM      1  CA  HIS     5      32.700  30.420  32.820  1.00  0.00     0.191 C 
ENDROOT
BRANCH   1   2
ATOM      2  CB  HIS     5      31.520  29.430  32.840  1.00  0.00     0.082 C 
BRANCH   2   3
ATOM      3  CG  HIS     5      30.940  29.220  34.250  1.00  0.00     0.082 A 
ATOM      4  CD2 HIS     5      29.780  28.630  34.520  1.00  0.00     0.116 A 
ATOM      5  NE2 HIS     5      29.750  28.320  35.810  1.00  0.00    -0.221 NA
ATOM      6  CE1 HIS     5      30.890  28.720  36.350  1.00  0.00     0.199 A 
ATOM      7  ND1 HIS     5      31.610  29.320  35.390  1.00  0.00    -0.227 NA
ENDBRANCH   2   3
ENDBRANCH   1   2
BRANCH   1   8
ATOM      8  C   HIS     5      33.370  30.410  31.440  1.00  0.00     0.257 C 
ATOM      9  O   HIS     5      32.800  31.000  30.500  1.00  0.00    -0.270 OA
ATOM     10  N   PRO     6      34.560  29.820  31.310  1.00  0.00    -0.312 N 
ATOM     11  CA  PRO     6      35.330  29.790  30.050  1.00  0.00     0.163 C 
ATOM     12  CD  PRO     6      35.310  29.140  32.400  1.00  0.00     0.105 C 
ATOM     13  CB  PRO     6      36.710  29.250  30.450  1.00  0.00     0.034 C 
ATOM     14  CG  PRO     6      36.430  28.390  31.680  1.00  0.00     0.027 C 
BRANCH  11  15
ATOM     15  C   PRO     6      34.660  28.940  28.960  1.00  0.00     0.254 C 
ATOM     16  N   PRO     7      34.610  29.450  27.710  1.00  0.00    -0.312 N 
ATOM     17  CA  PRO     7      33.950  28.780  26.570  1.00  0.00     0.165 C 
ATOM     18  CD  PRO     7      35.100  30.780  27.310  1.00  0.00     0.105 C 
ATOM     19  CB  PRO     7      34.320  29.630  25.350  1.00  0.00     0.034 C 
ATOM     20  CG  PRO     7      34.450  31.030  25.950  1.00  0.00     0.027 C 
ATOM     21  O   PRO     6      34.230  27.820  29.220  1.00  0.00    -0.270 OA
BRANCH  17  22
ATOM     22  C   PRO     7      34.430  27.340  26.380  1.00  0.00     0.272 C 
ATOM     23  N   GLY     8      33.500  26.420  26.570  1.00  0.00    -0.226 NA
ATOM     24  O   PRO     7      35.630  27.100  26.240  1.00  0.00    -0.269 OA
BRANCH  23  25
ATOM     25  CA  GLY     8      33.760  24.970  26.520  1.00  0.00     0.218 C 
BRANCH  25  26
ATOM     26  C   GLY     8      33.440  24.270  27.850  1.00  0.00     0.277 C 
ATOM     27  O   GLY     8      32.550  23.420  27.900  1.00  0.00    -0.268 OA
ATOM     28  N   VAL     9      33.920  24.870  28.940  1.00  0.00    -0.229 NA
BRANCH  28  29
ATOM     29  CA  VAL     9      33.710  24.370  30.310  1.00  0.00     0.186 C 
BRANCH  29  30
ATOM     30  CB  VAL     9      34.990  24.550  31.150  1.00  0.00     0.032 C 
ATOM     31  CG2 VAL     9      36.190  23.850  30.500  1.00  0.00     0.003 C 
ATOM     32  CG1 VAL     9      34.800  24.010  32.580  1.00  0.00     0.003 C 
ENDBRANCH  29  30
BRANCH  29  33
ATOM     33  C   VAL     9      32.520  25.150  30.900  1.00  0.00     0.274 C 
ATOM     34  O   VAL     9      32.600  26.360  31.110  1.00  0.00    -0.268 OA
ATOM     35  N   TYR    10      31.380  24.470  30.870  1.00  0.00    -0.228 NA
BRANCH  35  36
ATOM     36  CA  TYR    10      30.090  25.050  31.260  1.00  0.00     0.191 C 
BRANCH  36  37
ATOM     37  CB  TYR    10      29.100  25.060  30.090  1.00  0.00     0.060 C 
BRANCH  37  38
ATOM     38  CG  TYR    10      29.470  26.070  29.000  1.00  0.00    -0.020 A 
ATOM     39  CD2 TYR    10      29.160  27.410  29.160  1.00  0.00    -0.002 A 
ATOM     40  CE2 TYR    10      29.420  28.310  28.130  1.00  0.00     0.027 A 
ATOM     41  CZ  TYR    10      29.970  27.860  26.940  1.00  0.00     0.131 A 
ATOM     42  OH  TYR    10      30.230  28.750  25.960  1.00  0.00    -0.190 OA
ATOM     43  CE1 TYR    10      30.270  26.510  26.770  1.00  0.00     0.027 A 
ATOM     44  CD1 TYR    10      30.030  25.620  27.810  1.00  0.00    -0.002 A 
ENDBRANCH  37  38
ENDBRANCH  36  37
BRANCH  36  45
ATOM     45  C   TYR    10      29.400  24.380  32.460  1.00  0.00     0.275 C 
ATOM     46  O   TYR    10      29.650  23.220  32.780  1.00  0.00    -0.268 OA
ATOM     47  N   ASP    11      28.640  25.260  33.090  1.00  0.00    -0.227 NA
BRANCH  47  48
ATOM     48  CA  ASP    11      27.630  25.130  34.140  1.00  0.00     0.203 C 
BRANCH  48  49
ATOM     49  C   ASP    11      26.630  26.230  33.700  1.00  0.00     0.209 C 
ATOM     50  O2  ASP    11      27.130  27.340  33.340  1.00  0.00    -0.646 OA
ATOM     51  O1  ASP    11      25.550  25.840  33.210  1.00  0.00    -0.646 OA
ENDBRANCH  48  49
BRANCH  48  52
ATOM     52  CB  ASP    11      28.390  25.390  35.450  1.00  0.00     0.133 C 
BRANCH  52  53
ATOM     53  CG  ASP    11      27.650  25.790  36.740  1.00  0.00     0.188 C 
ATOM     54  OD1 ASP    11      27.270  24.870  37.500  1.00  0.00    -0.647 OA
ATOM     55  OD2 ASP    11      27.720  27.000  37.070  1.00  0.00    -0.647 OA
ENDBRANCH  52  53
ENDBRANCH  48  52
ENDBRANCH  47  48
ENDBRANCH  36  45
ENDBRANCH  35  36
ENDBRANCH  29  33
ENDBRANCH  28  29
ENDBRANCH  25  26
ENDBRANCH  23  25
ENDBRANCH  17  22
ENDBRANCH  11  15
ENDBRANCH   1   8
BRANCH   1  56
ATOM     56  N   HIS     5      32.190  31.770  33.130  1.00  0.00    -0.228 NA
ATOM     57  C   ARG     4      32.440  32.430  34.250  1.00  0.00     0.274 C 
ATOM     58  O   ARG     4      33.510  32.370  34.840  1.00  0.00    -0.268 OA
BRANCH  57  59
ATOM     59  CA  ARG     4      31.560  33.690  34.420  1.00  0.00     0.186 C 
BRANCH  59  60
ATOM     60  CB  ARG     4      30.120  33.230  34.710  1.00  0.00     0.036 C 
BRANCH  60  61
ATOM     61  CG  ARG     4      29.180  34.360  35.140  1.00  0.00     0.029 C 
BRANCH  61  62
ATOM     62  CD  ARG     4      27.900  33.830  35.810  1.00  0.00     0.145 C 
BRANCH  62  63
ATOM     63  NE  ARG     4      26.950  33.170  34.880  1.00  0.00    -0.083 NA
ATOM     64  CZ  ARG     4      25.890  33.760  34.300  1.00  0.00     0.782 C 
ATOM     65  NH2 ARG     4      25.080  33.060  33.490  1.00  0.00     0.063 N 
ATOM     66  NH1 ARG     4      25.610  35.050  34.530  1.00  0.00     0.063 N 
ENDBRANCH  62  63
ENDBRANCH  61  62
ENDBRANCH  60  61
ENDBRANCH  59  60
BRANCH  59  67
ATOM     67  N   ARG     4      31.640  34.580  33.240  1.00  0.00    -0.229 NA
ATOM     68  C   SER     3      32.400  35.670  33.180  1.00  0.00     0.277 C 
ATOM     69  O   SER     3      32.790  36.250  34.190  1.00  0.00    -0.268 OA
BRANCH  68  70
ATOM     70  CA  SER     3      32.430  36.430  31.840  1.00  0.00     0.219 C 
BRANCH  70  71
ATOM     71  CB  SER     3      31.530  37.660  32.000  1.00  0.00     0.216 C 
ATOM     72  OG  SER     3      30.140  37.310  31.840  1.00  0.00    -0.218 OA
ENDBRANCH  70  71
BRANCH  70  73
ATOM     73  N   SER     3      32.080  35.730  30.580  1.00  0.00    -0.226 NA
ATOM     74  C   ARG     2      32.690  34.660  30.060  1.00  0.00     0.274 C 
ATOM     75  O   ARG     2      33.720  34.190  30.520  1.00  0.00    -0.268 OA
BRANCH  74  76
ATOM     76  CA  ARG     2      32.030  34.030  28.810  1.00  0.00     0.186 C 
BRANCH  76  77
ATOM     77  N   ARG     2      30.600  33.600  28.860  1.00  0.00    -0.229 NA
ATOM     78  C   TYR     1      29.880  33.380  29.960  1.00  0.00     0.289 C 
ATOM     79  O   TYR     1      30.260  33.590  31.100  1.00  0.00    -0.268 OA
BRANCH  78  80
ATOM     80  CA  TYR     1      28.370  33.160  29.840  1.00  0.00     0.385 C 
ATOM     81  N   TYR     1      27.650  34.450  29.850  1.00  0.00     0.626 N 
BRANCH  80  82
ATOM     82  CB  TYR     1      27.940  32.280  28.660  1.00  0.00     0.075 C 
BRANCH  82  83
ATOM     83  CG  TYR     1      26.490  31.820  28.880  1.00  0.00    -0.019 A 
ATOM     84  CD2 TYR     1      26.210  30.870  29.850  1.00  0.00    -0.002 A 
ATOM     85  CE2 TYR     1      24.910  30.680  30.300  1.00  0.00     0.027 A 
ATOM     86  CZ  TYR     1      23.880  31.450  29.790  1.00  0.00     0.131 A 
ATOM     87  OH  TYR     1      22.770  31.650  30.530  1.00  0.00    -0.190 OA
ATOM     88  CE1 TYR     1      24.150  32.360  28.770  1.00  0.00     0.027 A 
ATOM     89  CD1 TYR     1      25.450  32.540  28.310  1.00  0.00    -0.002 A 
ENDBRANCH  82  83
ENDBRANCH  80  82
ENDBRANCH  78  80
ENDBRANCH  76  77
BRANCH  76  90
ATOM     90  CB  ARG     2      32.300  34.900  27.570  1.00  0.00     0.036 C 
BRANCH  90  91
ATOM     91  CG  ARG     2      32.140  34.160  26.240  1.00  0.00     0.029 C 
BRANCH  91  92
ATOM     92  CD  ARG     2      32.480  35.050  25.050  1.00  0.00     0.145 C 
BRANCH  92  93
ATOM     93  NE  ARG     2      32.290  34.340  23.770  1.00  0.00    -0.083 NA
ATOM     94  CZ  ARG     2      32.380  34.880  22.530  1.00  0.00     0.782 C 
ATOM     95  NH2 ARG     2      32.030  34.150  21.460  1.00  0.00     0.063 N 
ATOM     96  NH1 ARG     2      32.730  36.160  22.340  1.00  0.00     0.063 N 
ENDBRANCH  92  93
ENDBRANCH  91  92
ENDBRANCH  90  91
ENDBRANCH  76  90
ENDBRANCH  74  76
ENDBRANCH  70  73
ENDBRANCH  68  70
ENDBRANCH  59  67
ENDBRANCH  57  59
ENDBRANCH   1  56
TORSDOF 37
