MODEL 1
REMARK VINA RESULT:      -6.0      0.000      0.000
REMARK WARNING: 32 MAX_TORS EXCEEDED!!!
REMARK  42 active torsions:
REMARK  status: ('A' for Active; 'I' for Inactive)
REMARK    1  A    between atoms: CA_2  and  CB_3 
REMARK    2  A    between atoms: CA_2  and  C_11 
REMARK    3  A    between atoms: CB_3  and  CG_4 
REMARK       I    between atoms: C_11  and  N_13 
REMARK    4  A    between atoms: N_13  and  CA_14 
REMARK    5  A    between atoms: CA_14  and  CB_15 
REMARK    6  A    between atoms: CA_14  and  C_19 
REMARK    7  A    between atoms: CB_15  and  CG_16 
REMARK       I    between atoms: C_19  and  N_21 
REMARK    8  A    between atoms: CA_22  and  C_26 
REMARK       I    between atoms: C_26  and  N_28 
REMARK    9  A    between atoms: N_28  and  CA_29 
REMARK   10  A    between atoms: CA_29  and  C_35 
REMARK   11  A    between atoms: CA_29  and  CB_30 
REMARK   12  A    between atoms: CB_30  and  CG_31 
REMARK   13  A    between atoms: CG_31  and  CD_32 
REMARK       I    between atoms: C_35  and  N_37 
REMARK   14  A    between atoms: N_37  and  CA_38 
REMARK   15  A    between atoms: CA_38  and  CB_39 
REMARK   16  A    between atoms: CA_38  and  C_47 
REMARK   17  A    between atoms: CB_39  and  CG_40 
REMARK       I    between atoms: C_47  and  N_49 
REMARK   18  A    between atoms: N_49  and  CA_50 
REMARK   19  A    between atoms: CA_50  and  CB_51 
REMARK   20  A    between atoms: CA_50  and  C_58 
REMARK   21  A    between atoms: CB_51  and  CG_52 
REMARK   22  A    between atoms: CG_52  and  CD_53 
REMARK   23  A    between atoms: CD_53  and  NE_54 
REMARK       I    between atoms: C_58  and  N_60 
REMARK   24  A    between atoms: N_60  and  CA_61 
REMARK   25  A    between atoms: CA_61  and  C_66 
REMARK   26  A    between atoms: CA_61  and  CB_62 
REMARK   27  A    between atoms: CB_62  and  CG_63 
REMARK       I    between atoms: C_66  and  N_68 
REMARK   28  A    between atoms: N_68  and  CA_69 
REMARK   29  A    between atoms: CA_69  and  CB_70 
REMARK   30  A    between atoms: CA_69  and  C_77 
REMARK   31  A    between atoms: CB_70  and  CG_71 
REMARK       I    between atoms: C_77  and  N_79 
REMARK   32  A    between atoms: N_79  and  CA_80 
REMARK   33  A    between atoms: CA_80  and  CB_81 
REMARK   34  A    between atoms: CA_80  and  C_91 
REMARK   35  A    between atoms: CB_81  and  CG_82 
REMARK       I    between atoms: C_91  and  N_93 
REMARK   36  A    between atoms: N_93  and  CA_94 
REMARK   37  A    between atoms: CA_94  and  C_95 
REMARK       I    between atoms: C_95  and  N_97 
REMARK   38  A    between atoms: N_97  and  CA_98 
REMARK   39  A    between atoms: CA_98  and  C_101 
REMARK   40  A    between atoms: CA_98  and  CB_99 
REMARK       I    between atoms: C_101  and  N_103 
REMARK   41  A    between atoms: N_103  and  CA_104 
REMARK   42  A    between atoms: CA_104  and  C_105 
ROOT
ATOM      1  CA  ARG     6      -9.300 -14.139   4.478  1.00  0.00     0.186 C 
ENDROOT
BRANCH   1   2
ATOM      2  N   ARG     6      -8.655 -12.824   4.707  1.00  0.00    -0.229 NA
ATOM      3  C   TYR     5      -9.078 -11.973   5.651  1.00  0.00     0.275 C 
ATOM      4  O   TYR     5     -10.011 -12.239   6.408  1.00  0.00    -0.268 OA
BRANCH   3   5
ATOM      5  CA  TYR     5      -8.274 -10.675   5.833  1.00  0.00     0.191 C 
BRANCH   5   6
ATOM      6  N   TYR     5      -9.060  -9.446   5.549  1.00  0.00    -0.228 NA
ATOM      7  C   GLU     4      -9.134  -8.888   4.329  1.00  0.00     0.274 C 
ATOM      8  O   GLU     4      -8.676  -9.424   3.329  1.00  0.00    -0.268 OA
BRANCH   7   9
ATOM      9  CA  GLU     4     -10.106  -7.699   4.187  1.00  0.00     0.187 C 
BRANCH   9  10
ATOM     10  CB  GLU     4      -9.933  -7.046   2.806  1.00  0.00     0.045 C 
BRANCH  10  11
ATOM     11  CG  GLU     4     -11.055  -6.083   2.360  1.00  0.00     0.100 C 
BRANCH  11  12
ATOM     12  CD  GLU     4     -10.716  -5.252   1.123  1.00  0.00     0.185 C 
ATOM     13  OE1 GLU     4     -10.421  -4.042   1.303  1.00  0.00    -0.647 OA
ATOM     14  OE2 GLU     4     -11.190  -5.643   0.037  1.00  0.00    -0.647 OA
ENDBRANCH  11  12
ENDBRANCH  10  11
ENDBRANCH   9  10
BRANCH   9  15
ATOM     15  N   GLU     4      -9.919  -6.666   5.223  1.00  0.00    -0.229 NA
ATOM     16  C   PRO     3     -10.845  -5.921   5.815  1.00  0.00     0.272 C 
ATOM     17  O   PRO     3     -12.036  -6.233   5.862  1.00  0.00    -0.269 OA
BRANCH  16  18
ATOM     18  CA  PRO     3     -10.319  -4.931   6.856  1.00  0.00     0.165 C 
ATOM     19  N   PRO     3     -10.451  -3.506   6.481  1.00  0.00    -0.312 N 
ATOM     20  CD  PRO     3     -10.864  -2.714   7.668  1.00  0.00     0.105 C 
ATOM     21  C   ASP     2     -10.092  -3.008   5.284  1.00  0.00     0.257 C 
ATOM     22  CG  PRO     3     -10.764  -3.704   8.839  1.00  0.00     0.027 C 
ATOM     23  CB  PRO     3     -11.043  -5.059   8.194  1.00  0.00     0.034 C 
ATOM     24  O   ASP     2      -9.424  -3.694   4.495  1.00  0.00    -0.270 OA
BRANCH  21  25
ATOM     25  CA  ASP     2     -10.194  -1.487   5.032  1.00  0.00     0.195 C 
BRANCH  25  26
ATOM     26  CB  ASP     2     -11.275  -1.027   4.021  1.00  0.00     0.132 C 
BRANCH  26  27
ATOM     27  CG  ASP     2     -12.467  -0.390   4.761  1.00  0.00     0.188 C 
ATOM     28  OD2 ASP     2     -13.170  -1.183   5.438  1.00  0.00    -0.647 OA
ATOM     29  OD1 ASP     2     -12.983   0.625   4.231  1.00  0.00    -0.647 OA
ENDBRANCH  26  27
ENDBRANCH  25  26
BRANCH  25  30
ATOM     30  N   ASP     2      -8.958  -0.939   4.447  1.00  0.00    -0.228 NA
ATOM     31  C   TYR     1      -7.821  -0.730   5.069  1.00  0.00     0.289 C 
ATOM     32  O   TYR     1      -7.507  -1.067   6.215  1.00  0.00    -0.268 OA
BRANCH  31  33
ATOM     33  CA  TYR     1      -6.833   0.049   4.206  1.00  0.00     0.385 C 
ATOM     34  N   TYR     1      -7.250  -0.095   2.801  1.00  0.00     0.626 N 
BRANCH  33  35
ATOM     35  CB  TYR     1      -6.860   1.500   4.679  1.00  0.00     0.075 C 
BRANCH  35  36
ATOM     36  CG  TYR     1      -5.526   1.959   5.289  1.00  0.00    -0.019 A 
ATOM     37  CD2 TYR     1      -4.849   1.179   6.214  1.00  0.00    -0.002 A 
ATOM     38  CE2 TYR     1      -3.585   1.551   6.646  1.00  0.00     0.027 A 
ATOM     39  CZ  TYR     1      -3.010   2.718   6.145  1.00  0.00     0.131 A 
ATOM     40  CE1 TYR     1      -3.709   3.512   5.254  1.00  0.00     0.027 A 
ATOM     41  OH  TYR     1      -1.718   3.002   6.402  1.00  0.00    -0.190 OA
ATOM     42  CD1 TYR     1      -4.973   3.141   4.821  1.00  0.00    -0.002 A 
ENDBRANCH  35  36
ENDBRANCH  33  35
ENDBRANCH  31  33
ENDBRANCH  25  30
ENDBRANCH  21  25
ENDBRANCH  16  18
ENDBRANCH   9  15
ENDBRANCH   7   9
ENDBRANCH   5   6
BRANCH   5  43
ATOM     43  CB  TYR     5      -7.667 -10.598   7.244  1.00  0.00     0.060 C 
BRANCH  43  44
ATOM     44  CG  TYR     5      -6.744 -11.790   7.548  1.00  0.00    -0.020 A 
ATOM     45  CD2 TYR     5      -6.986 -12.611   8.642  1.00  0.00    -0.002 A 
ATOM     46  CE2 TYR     5      -6.149 -13.692   8.904  1.00  0.00     0.027 A 
ATOM     47  CZ  TYR     5      -5.070 -13.951   8.073  1.00  0.00     0.131 A 
ATOM     48  CE1 TYR     5      -4.832 -13.145   6.965  1.00  0.00     0.027 A 
ATOM     49  OH  TYR     5      -4.176 -14.910   8.397  1.00  0.00    -0.190 OA
ATOM     50  CD1 TYR     5      -5.667 -12.057   6.710  1.00  0.00    -0.002 A 
ENDBRANCH  43  44
ENDBRANCH   5  43
ENDBRANCH   3   5
ENDBRANCH   1   2
BRANCH   1  51
ATOM     51  CB  ARG     6      -9.338 -14.532   3.004  1.00  0.00     0.036 C 
BRANCH  51  52
ATOM     52  CG  ARG     6      -9.701 -13.377   2.069  1.00  0.00     0.029 C 
BRANCH  52  53
ATOM     53  CD  ARG     6     -11.083 -13.600   1.461  1.00  0.00     0.145 C 
BRANCH  53  54
ATOM     54  NE  ARG     6     -11.947 -14.362   2.378  1.00  0.00    -0.083 NA
ATOM     55  CZ  ARG     6     -12.535 -15.540   2.100  1.00  0.00     0.782 C 
ATOM     56  NH2 ARG     6     -13.369 -16.105   2.976  1.00  0.00     0.063 N 
ATOM     57  NH1 ARG     6     -12.363 -16.113   0.914  1.00  0.00     0.063 N 
ENDBRANCH  53  54
ENDBRANCH  52  53
ENDBRANCH  51  52
ENDBRANCH   1  51
BRANCH   1  58
ATOM     58  C   ARG     6      -8.588 -15.278   5.218  1.00  0.00     0.274 C 
ATOM     59  N   ASN     7      -8.987 -16.508   4.904  1.00  0.00    -0.228 NA
ATOM     60  O   ARG     6      -7.715 -15.006   6.043  1.00  0.00    -0.268 OA
BRANCH  59  61
ATOM     61  CA  ASN     7      -8.353 -17.731   5.439  1.00  0.00     0.196 C 
BRANCH  61  62
ATOM     62  C   ASN     7      -6.995 -18.007   4.764  1.00  0.00     0.275 C 
ATOM     63  N   PHE     8      -6.123 -18.766   5.444  1.00  0.00    -0.228 NA
ATOM     64  O   ASN     7      -6.938 -17.870   3.557  1.00  0.00    -0.268 OA
BRANCH  63  65
ATOM     65  CA  PHE     8      -4.805 -19.212   4.929  1.00  0.00     0.191 C 
BRANCH  65  66
ATOM     66  CB  PHE     8      -4.016 -19.825   6.094  1.00  0.00     0.060 C 
BRANCH  66  67
ATOM     67  CG  PHE     8      -2.563 -19.328   6.209  1.00  0.00    -0.020 A 
ATOM     68  CD1 PHE     8      -2.298 -17.966   6.258  1.00  0.00    -0.004 A 
ATOM     69  CE1 PHE     8      -0.979 -17.515   6.259  1.00  0.00    -0.000 A 
ATOM     70  CZ  PHE     8       0.061 -18.430   6.228  1.00  0.00    -0.000 A 
ATOM     71  CE2 PHE     8      -0.201 -19.795   6.193  1.00  0.00    -0.000 A 
ATOM     72  CD2 PHE     8      -1.521 -20.247   6.192  1.00  0.00    -0.004 A 
ENDBRANCH  66  67
ENDBRANCH  65  66
BRANCH  65  73
ATOM     73  C   PHE     8      -4.868 -20.168   3.716  1.00  0.00     0.275 C 
ATOM     74  N   TRP     9      -5.174 -21.439   3.977  1.00  0.00    -0.228 NA
ATOM     75  O   PHE     8      -4.414 -19.831   2.619  1.00  0.00    -0.268 OA
BRANCH  74  76
ATOM     76  CA  TRP     9      -5.390 -22.435   2.899  1.00  0.00     0.191 C 
BRANCH  76  77
ATOM     77  CB  TRP     9      -6.375 -21.851   1.874  1.00  0.00     0.062 C 
BRANCH  77  78
ATOM     78  CG  TRP     9      -7.521 -22.802   1.531  1.00  0.00     0.001 A 
ATOM     79  CD1 TRP     9      -7.418 -23.933   0.838  1.00  0.00     0.095 A 
ATOM     80  NE1 TRP     9      -8.624 -24.349   0.476  1.00  0.00    -0.244 NA
ATOM     81  CE2 TRP     9      -9.540 -23.511   0.941  1.00  0.00     0.081 A 
ATOM     82  CD2 TRP     9      -8.876 -22.497   1.612  1.00  0.00     0.015 A 
ATOM     83  CZ2 TRP     9     -10.922 -23.434   0.776  1.00  0.00     0.019 A 
ATOM     84  CE3 TRP     9      -9.568 -21.402   2.108  1.00  0.00     0.001 A 
ATOM     85  CZ3 TRP     9     -10.946 -21.317   1.934  1.00  0.00     0.000 A 
ATOM     86  CH2 TRP     9     -11.620 -22.347   1.282  1.00  0.00     0.002 A 
ENDBRANCH  77  78
ENDBRANCH  76  77
BRANCH  76  87
ATOM     87  C   TRP     9      -4.094 -22.938   2.222  1.00  0.00     0.275 C 
ATOM     88  O   TRP     9      -3.992 -22.962   0.999  1.00  0.00    -0.268 OA
ATOM     89  N   GLY    10      -3.083 -23.238   3.036  1.00  0.00    -0.226 NA
BRANCH  89  90
ATOM     90  CA  GLY    10      -1.744 -23.696   2.575  1.00  0.00     0.218 C 
BRANCH  90  91
ATOM     91  C   GLY    10      -0.946 -24.569   3.558  1.00  0.00     0.277 C 
ATOM     92  N   CYS    11      -1.504 -25.744   3.848  1.00  0.00    -0.228 NA
ATOM     93  O   GLY    10       0.030 -24.116   4.143  1.00  0.00    -0.268 OA
BRANCH  92  94
ATOM     94  CA  CYS    11      -0.950 -26.787   4.740  1.00  0.00     0.198 C 
BRANCH  94  95
ATOM     95  C   CYS    11      -0.378 -27.915   3.859  1.00  0.00     0.275 C 
ATOM     96  O   CYS    11       0.482 -27.644   3.028  1.00  0.00    -0.268 OA
ATOM     97  N   GLY    12      -1.005 -29.080   3.927  1.00  0.00    -0.225 NA
BRANCH  97  98
ATOM     98  CA  GLY    12      -0.599 -30.256   3.141  1.00  0.00     0.226 C 
BRANCH  98  99
ATOM     99  C   GLY    12      -0.174 -31.367   4.128  1.00  0.00     0.211 C 
ATOM    100  O1  GLY    12       0.996 -31.811   4.008  1.00  0.00    -0.646 OA
ATOM    101  O2  GLY    12      -0.998 -31.721   4.992  1.00  0.00    -0.646 OA
ENDBRANCH  98  99
ENDBRANCH  97  98
ENDBRANCH  94  95
BRANCH  94 102
ATOM    102  CB  CYS    11      -2.069 -27.429   5.557  1.00  0.00     0.103 C 
ATOM    103  SG  CYS    11      -3.549 -26.388   5.858  1.00  0.00    -0.080 SA
ENDBRANCH  94 102
ENDBRANCH  92  94
ENDBRANCH  90  91
ENDBRANCH  89  90
ENDBRANCH  76  87
ENDBRANCH  74  76
ENDBRANCH  65  73
ENDBRANCH  63  65
ENDBRANCH  61  62
BRANCH  61 104
ATOM    104  CB  ASN     7      -9.284 -18.943   5.307  1.00  0.00     0.126 C 
BRANCH 104 105
ATOM    105  CG  ASN     7     -10.726 -18.608   4.883  1.00  0.00     0.276 C 
ATOM    106  ND2 ASN     7     -11.631 -18.646   5.834  1.00  0.00    -0.107 N 
ATOM    107  OD1 ASN     7     -11.104 -18.469   3.726  1.00  0.00    -0.269 OA
ENDBRANCH 104 105
ENDBRANCH  61 104
ENDBRANCH  59  61
ENDBRANCH   1  58
TORSDOF 42
ENDMDL
MODEL 2
REMARK VINA RESULT:      -5.9      3.079      4.732
REMARK WARNING: 32 MAX_TORS EXCEEDED!!!
REMARK  42 active torsions:
REMARK  status: ('A' for Active; 'I' for Inactive)
REMARK    1  A    between atoms: CA_2  and  CB_3 
REMARK    2  A    between atoms: CA_2  and  C_11 
REMARK    3  A    between atoms: CB_3  and  CG_4 
REMARK       I    between atoms: C_11  and  N_13 
REMARK    4  A    between atoms: N_13  and  CA_14 
REMARK    5  A    between atoms: CA_14  and  CB_15 
REMARK    6  A    between atoms: CA_14  and  C_19 
REMARK    7  A    between atoms: CB_15  and  CG_16 
REMARK       I    between atoms: C_19  and  N_21 
REMARK    8  A    between atoms: CA_22  and  C_26 
REMARK       I    between atoms: C_26  and  N_28 
REMARK    9  A    between atoms: N_28  and  CA_29 
REMARK   10  A    between atoms: CA_29  and  C_35 
REMARK   11  A    between atoms: CA_29  and  CB_30 
REMARK   12  A    between atoms: CB_30  and  CG_31 
REMARK   13  A    between atoms: CG_31  and  CD_32 
REMARK       I    between atoms: C_35  and  N_37 
REMARK   14  A    between atoms: N_37  and  CA_38 
REMARK   15  A    between atoms: CA_38  and  CB_39 
REMARK   16  A    between atoms: CA_38  and  C_47 
REMARK   17  A    between atoms: CB_39  and  CG_40 
REMARK       I    between atoms: C_47  and  N_49 
REMARK   18  A    between atoms: N_49  and  CA_50 
REMARK   19  A    between atoms: CA_50  and  CB_51 
REMARK   20  A    between atoms: CA_50  and  C_58 
REMARK   21  A    between atoms: CB_51  and  CG_52 
REMARK   22  A    between atoms: CG_52  and  CD_53 
REMARK   23  A    between atoms: CD_53  and  NE_54 
REMARK       I    between atoms: C_58  and  N_60 
REMARK   24  A    between atoms: N_60  and  CA_61 
REMARK   25  A    between atoms: CA_61  and  C_66 
REMARK   26  A    between atoms: CA_61  and  CB_62 
REMARK   27  A    between atoms: CB_62  and  CG_63 
REMARK       I    between atoms: C_66  and  N_68 
REMARK   28  A    between atoms: N_68  and  CA_69 
REMARK   29  A    between atoms: CA_69  and  CB_70 
REMARK   30  A    between atoms: CA_69  and  C_77 
REMARK   31  A    between atoms: CB_70  and  CG_71 
REMARK       I    between atoms: C_77  and  N_79 
REMARK   32  A    between atoms: N_79  and  CA_80 
REMARK   33  A    between atoms: CA_80  and  CB_81 
REMARK   34  A    between atoms: CA_80  and  C_91 
REMARK   35  A    between atoms: CB_81  and  CG_82 
REMARK       I    between atoms: C_91  and  N_93 
REMARK   36  A    between atoms: N_93  and  CA_94 
REMARK   37  A    between atoms: CA_94  and  C_95 
REMARK       I    between atoms: C_95  and  N_97 
REMARK   38  A    between atoms: N_97  and  CA_98 
REMARK   39  A    between atoms: CA_98  and  C_101 
REMARK   40  A    between atoms: CA_98  and  CB_99 
REMARK       I    between atoms: C_101  and  N_103 
REMARK   41  A    between atoms: N_103  and  CA_104 
REMARK   42  A    between atoms: CA_104  and  C_105 
ROOT
ATOM      1  CA  ARG     6      -9.942 -13.996   3.899  1.00  0.00     0.186 C 
ENDROOT
BRANCH   1   2
ATOM      2  N   ARG     6      -9.149 -12.790   4.233  1.00  0.00    -0.229 NA
ATOM      3  C   TYR     5      -9.671 -11.748   4.893  1.00  0.00     0.275 C 
ATOM      4  O   TYR     5     -10.836 -11.736   5.290  1.00  0.00    -0.268 OA
BRANCH   3   5
ATOM      5  CA  TYR     5      -8.719 -10.592   5.242  1.00  0.00     0.191 C 
BRANCH   5   6
ATOM      6  N   TYR     5      -9.265  -9.252   4.904  1.00  0.00    -0.228 NA
ATOM      7  C   GLU     4      -8.871  -8.549   3.829  1.00  0.00     0.274 C 
ATOM      8  O   GLU     4      -8.136  -9.015   2.968  1.00  0.00    -0.268 OA
BRANCH   7   9
ATOM      9  CA  GLU     4      -9.644  -7.242   3.555  1.00  0.00     0.187 C 
BRANCH   9  10
ATOM     10  CB  GLU     4      -8.887  -6.396   2.519  1.00  0.00     0.045 C 
BRANCH  10  11
ATOM     11  CG  GLU     4      -9.751  -5.684   1.455  1.00  0.00     0.100 C 
BRANCH  11  12
ATOM     12  CD  GLU     4      -9.651  -4.159   1.481  1.00  0.00     0.185 C 
ATOM     13  OE1 GLU     4      -8.501  -3.657   1.588  1.00  0.00    -0.647 OA
ATOM     14  OE2 GLU     4     -10.662  -3.536   1.865  1.00  0.00    -0.647 OA
ENDBRANCH  11  12
ENDBRANCH  10  11
ENDBRANCH   9  10
BRANCH   9  15
ATOM     15  N   GLU     4      -9.856  -6.426   4.766  1.00  0.00    -0.229 NA
ATOM     16  C   PRO     3     -10.814  -5.536   4.998  1.00  0.00     0.272 C 
ATOM     17  O   PRO     3     -11.886  -5.523   4.390  1.00  0.00    -0.269 OA
BRANCH  16  18
ATOM     18  CA  PRO     3     -10.753  -4.852   6.365  1.00  0.00     0.165 C 
ATOM     19  N   PRO     3     -10.907  -3.381   6.331  1.00  0.00    -0.312 N 
ATOM     20  CD  PRO     3     -11.756  -2.942   7.467  1.00  0.00     0.105 C 
ATOM     21  C   ASP     2     -10.240  -2.575   5.484  1.00  0.00     0.257 C 
ATOM     22  CG  PRO     3     -11.929  -4.207   8.322  1.00  0.00     0.027 C 
ATOM     23  CB  PRO     3     -11.847  -5.345   7.309  1.00  0.00     0.034 C 
ATOM     24  O   ASP     2      -9.289  -3.014   4.820  1.00  0.00    -0.270 OA
BRANCH  21  25
ATOM     25  CA  ASP     2     -10.415  -1.044   5.596  1.00  0.00     0.195 C 
BRANCH  25  26
ATOM     26  CB  ASP     2     -11.460  -0.399   4.649  1.00  0.00     0.132 C 
BRANCH  26  27
ATOM     27  CG  ASP     2     -12.686   0.081   5.448  1.00  0.00     0.188 C 
ATOM     28  OD2 ASP     2     -12.440   0.869   6.397  1.00  0.00    -0.647 OA
ATOM     29  OD1 ASP     2     -13.661  -0.708   5.514  1.00  0.00    -0.647 OA
ENDBRANCH  26  27
ENDBRANCH  25  26
BRANCH  25  30
ATOM     30  N   ASP     2      -9.181  -0.319   5.250  1.00  0.00    -0.228 NA
ATOM     31  C   TYR     1      -8.749   0.797   5.789  1.00  0.00     0.289 C 
ATOM     32  O   TYR     1      -9.201   1.392   6.773  1.00  0.00    -0.268 OA
BRANCH  31  33
ATOM     33  CA  TYR     1      -7.554   1.372   5.034  1.00  0.00     0.385 C 
ATOM     34  N   TYR     1      -7.843   1.276   3.593  1.00  0.00     0.626 N 
BRANCH  33  35
ATOM     35  CB  TYR     1      -7.372   2.814   5.499  1.00  0.00     0.075 C 
BRANCH  35  36
ATOM     36  CG  TYR     1      -5.909   3.165   5.811  1.00  0.00    -0.019 A 
ATOM     37  CD2 TYR     1      -4.922   3.072   4.843  1.00  0.00    -0.002 A 
ATOM     38  CE2 TYR     1      -3.638   3.522   5.111  1.00  0.00     0.027 A 
ATOM     39  CZ  TYR     1      -3.354   4.062   6.365  1.00  0.00     0.131 A 
ATOM     40  CE1 TYR     1      -4.334   4.114   7.339  1.00  0.00     0.027 A 
ATOM     41  OH  TYR     1      -2.174   4.675   6.588  1.00  0.00    -0.190 OA
ATOM     42  CD1 TYR     1      -5.618   3.664   7.072  1.00  0.00    -0.002 A 
ENDBRANCH  35  36
ENDBRANCH  33  35
ENDBRANCH  31  33
ENDBRANCH  25  30
ENDBRANCH  21  25
ENDBRANCH  16  18
ENDBRANCH   9  15
ENDBRANCH   7   9
ENDBRANCH   5   6
BRANCH   5  43
ATOM     43  CB  TYR     5      -8.318 -10.639   6.726  1.00  0.00     0.060 C 
BRANCH  43  44
ATOM     44  CG  TYR     5      -7.352 -11.796   7.033  1.00  0.00    -0.020 A 
ATOM     45  CD2 TYR     5      -5.996 -11.676   6.761  1.00  0.00    -0.002 A 
ATOM     46  CE2 TYR     5      -5.128 -12.725   7.049  1.00  0.00     0.027 A 
ATOM     47  CZ  TYR     5      -5.618 -13.895   7.608  1.00  0.00     0.131 A 
ATOM     48  CE1 TYR     5      -6.972 -14.017   7.900  1.00  0.00     0.027 A 
ATOM     49  OH  TYR     5      -4.809 -14.967   7.761  1.00  0.00    -0.190 OA
ATOM     50  CD1 TYR     5      -7.840 -12.967   7.602  1.00  0.00    -0.002 A 
ENDBRANCH  43  44
ENDBRANCH   5  43
ENDBRANCH   3   5
ENDBRANCH   1   2
BRANCH   1  51
ATOM     51  CB  ARG     6      -9.667 -14.516   2.491  1.00  0.00     0.036 C 
BRANCH  51  52
ATOM     52  CG  ARG     6     -10.719 -14.093   1.463  1.00  0.00     0.029 C 
BRANCH  52  53
ATOM     53  CD  ARG     6     -12.117 -14.458   1.952  1.00  0.00     0.145 C 
BRANCH  53  54
ATOM     54  NE  ARG     6     -12.560 -15.739   1.378  1.00  0.00    -0.083 NA
ATOM     55  CZ  ARG     6     -12.682 -16.898   2.054  1.00  0.00     0.782 C 
ATOM     56  NH2 ARG     6     -13.013 -18.023   1.417  1.00  0.00     0.063 N 
ATOM     57  NH1 ARG     6     -12.391 -16.952   3.349  1.00  0.00     0.063 N 
ENDBRANCH  53  54
ENDBRANCH  52  53
ENDBRANCH  51  52
ENDBRANCH   1  51
BRANCH   1  58
ATOM     58  C   ARG     6      -9.671 -15.162   4.858  1.00  0.00     0.274 C 
ATOM     59  N   ASN     7      -8.997 -16.187   4.344  1.00  0.00    -0.228 NA
ATOM     60  O   ARG     6     -10.081 -15.094   6.018  1.00  0.00    -0.268 OA
BRANCH  59  61
ATOM     61  CA  ASN     7      -8.558 -17.353   5.138  1.00  0.00     0.196 C 
BRANCH  61  62
ATOM     62  C   ASN     7      -7.183 -17.871   4.674  1.00  0.00     0.275 C 
ATOM     63  N   PHE     8      -6.518 -18.671   5.520  1.00  0.00    -0.228 NA
ATOM     64  O   ASN     7      -6.961 -17.857   3.479  1.00  0.00    -0.268 OA
BRANCH  63  65
ATOM     65  CA  PHE     8      -5.226 -19.335   5.220  1.00  0.00     0.191 C 
BRANCH  65  66
ATOM     66  CB  PHE     8      -4.419 -19.427   6.523  1.00  0.00     0.060 C 
BRANCH  66  67
ATOM     67  CG  PHE     8      -2.944 -19.004   6.390  1.00  0.00    -0.020 A 
ATOM     68  CD1 PHE     8      -1.946 -19.968   6.370  1.00  0.00    -0.004 A 
ATOM     69  CE1 PHE     8      -0.606 -19.581   6.352  1.00  0.00    -0.000 A 
ATOM     70  CZ  PHE     8      -0.280 -18.235   6.338  1.00  0.00    -0.000 A 
ATOM     71  CE2 PHE     8      -1.279 -17.266   6.345  1.00  0.00    -0.000 A 
ATOM     72  CD2 PHE     8      -2.618 -17.654   6.363  1.00  0.00    -0.004 A 
ENDBRANCH  66  67
ENDBRANCH  65  66
BRANCH  65  73
ATOM     73  C   PHE     8      -5.344 -20.710   4.524  1.00  0.00     0.275 C 
ATOM     74  N   TRP     9      -4.767 -21.741   5.144  1.00  0.00    -0.228 NA
ATOM     75  O   PHE     8      -5.722 -20.797   3.353  1.00  0.00    -0.268 OA
BRANCH  74  76
ATOM     76  CA  TRP     9      -4.907 -23.134   4.653  1.00  0.00     0.191 C 
BRANCH  76  77
ATOM     77  CB  TRP     9      -3.550 -23.607   4.108  1.00  0.00     0.062 C 
BRANCH  77  78
ATOM     78  CG  TRP     9      -3.568 -23.889   2.606  1.00  0.00     0.001 A 
ATOM     79  CD1 TRP     9      -3.633 -22.976   1.642  1.00  0.00     0.095 A 
ATOM     80  NE1 TRP     9      -3.927 -23.563   0.488  1.00  0.00    -0.244 NA
ATOM     81  CE2 TRP     9      -4.039 -24.870   0.673  1.00  0.00     0.081 A 
ATOM     82  CD2 TRP     9      -3.831 -25.122   2.019  1.00  0.00     0.015 A 
ATOM     83  CZ2 TRP     9      -4.414 -25.916  -0.171  1.00  0.00     0.019 A 
ATOM     84  CE3 TRP     9      -4.005 -26.397   2.539  1.00  0.00     0.001 A 
ATOM     85  CZ3 TRP     9      -4.392 -27.438   1.702  1.00  0.00     0.000 A 
ATOM     86  CH2 TRP     9      -4.576 -27.194   0.343  1.00  0.00     0.002 A 
ENDBRANCH  77  78
ENDBRANCH  76  77
BRANCH  76  87
ATOM     87  C   TRP     9      -5.482 -24.125   5.690  1.00  0.00     0.275 C 
ATOM     88  O   TRP     9      -5.010 -25.250   5.815  1.00  0.00    -0.268 OA
ATOM     89  N   GLY    10      -6.435 -23.651   6.491  1.00  0.00    -0.226 NA
BRANCH  89  90
ATOM     90  CA  GLY    10      -7.083 -24.434   7.579  1.00  0.00     0.218 C 
BRANCH  90  91
ATOM     91  C   GLY    10      -8.587 -24.708   7.421  1.00  0.00     0.277 C 
ATOM     92  N   CYS    11      -9.095 -24.392   6.230  1.00  0.00    -0.228 NA
ATOM     93  O   GLY    10      -9.268 -25.025   8.389  1.00  0.00    -0.268 OA
BRANCH  92  94
ATOM     94  CA  CYS    11     -10.498 -24.569   5.795  1.00  0.00     0.198 C 
BRANCH  94  95
ATOM     95  C   CYS    11     -10.774 -26.081   5.673  1.00  0.00     0.275 C 
ATOM     96  O   CYS    11     -10.125 -26.743   4.871  1.00  0.00    -0.268 OA
ATOM     97  N   GLY    12     -11.844 -26.530   6.312  1.00  0.00    -0.225 NA
BRANCH  97  98
ATOM     98  CA  GLY    12     -12.259 -27.942   6.287  1.00  0.00     0.226 C 
BRANCH  98  99
ATOM     99  C   GLY    12     -13.800 -27.984   6.163  1.00  0.00     0.211 C 
ATOM    100  O1  GLY    12     -14.440 -28.323   7.190  1.00  0.00    -0.646 OA
ATOM    101  O2  GLY    12     -14.303 -27.650   5.074  1.00  0.00    -0.646 OA
ENDBRANCH  98  99
ENDBRANCH  97  98
ENDBRANCH  94  95
BRANCH  94 102
ATOM    102  CB  CYS    11     -10.689 -24.002   4.390  1.00  0.00     0.103 C 
ATOM    103  SG  CYS    11     -10.660 -22.173   4.247  1.00  0.00    -0.080 SA
ENDBRANCH  94 102
ENDBRANCH  92  94
ENDBRANCH  90  91
ENDBRANCH  89  90
ENDBRANCH  76  87
ENDBRANCH  74  76
ENDBRANCH  65  73
ENDBRANCH  63  65
ENDBRANCH  61  62
BRANCH  61 104
ATOM    104  CB  ASN     7      -9.603 -18.476   5.103  1.00  0.00     0.126 C 
BRANCH 104 105
ATOM    105  CG  ASN     7     -10.359 -18.698   6.426  1.00  0.00     0.276 C 
ATOM    106  ND2 ASN     7     -11.670 -18.708   6.346  1.00  0.00    -0.107 N 
ATOM    107  OD1 ASN     7      -9.844 -18.707   7.537  1.00  0.00    -0.269 OA
ENDBRANCH 104 105
ENDBRANCH  61 104
ENDBRANCH  59  61
ENDBRANCH   1  58
TORSDOF 42
ENDMDL
MODEL 3
REMARK VINA RESULT:      -5.9      2.773      5.216
REMARK WARNING: 32 MAX_TORS EXCEEDED!!!
REMARK  42 active torsions:
REMARK  status: ('A' for Active; 'I' for Inactive)
REMARK    1  A    between atoms: CA_2  and  CB_3 
REMARK    2  A    between atoms: CA_2  and  C_11 
REMARK    3  A    between atoms: CB_3  and  CG_4 
REMARK       I    between atoms: C_11  and  N_13 
REMARK    4  A    between atoms: N_13  and  CA_14 
REMARK    5  A    between atoms: CA_14  and  CB_15 
REMARK    6  A    between atoms: CA_14  and  C_19 
REMARK    7  A    between atoms: CB_15  and  CG_16 
REMARK       I    between atoms: C_19  and  N_21 
REMARK    8  A    between atoms: CA_22  and  C_26 
REMARK       I    between atoms: C_26  and  N_28 
REMARK    9  A    between atoms: N_28  and  CA_29 
REMARK   10  A    between atoms: CA_29  and  C_35 
REMARK   11  A    between atoms: CA_29  and  CB_30 
REMARK   12  A    between atoms: CB_30  and  CG_31 
REMARK   13  A    between atoms: CG_31  and  CD_32 
REMARK       I    between atoms: C_35  and  N_37 
REMARK   14  A    between atoms: N_37  and  CA_38 
REMARK   15  A    between atoms: CA_38  and  CB_39 
REMARK   16  A    between atoms: CA_38  and  C_47 
REMARK   17  A    between atoms: CB_39  and  CG_40 
REMARK       I    between atoms: C_47  and  N_49 
REMARK   18  A    between atoms: N_49  and  CA_50 
REMARK   19  A    between atoms: CA_50  and  CB_51 
REMARK   20  A    between atoms: CA_50  and  C_58 
REMARK   21  A    between atoms: CB_51  and  CG_52 
REMARK   22  A    between atoms: CG_52  and  CD_53 
REMARK   23  A    between atoms: CD_53  and  NE_54 
REMARK       I    between atoms: C_58  and  N_60 
REMARK   24  A    between atoms: N_60  and  CA_61 
REMARK   25  A    between atoms: CA_61  and  C_66 
REMARK   26  A    between atoms: CA_61  and  CB_62 
REMARK   27  A    between atoms: CB_62  and  CG_63 
REMARK       I    between atoms: C_66  and  N_68 
REMARK   28  A    between atoms: N_68  and  CA_69 
REMARK   29  A    between atoms: CA_69  and  CB_70 
REMARK   30  A    between atoms: CA_69  and  C_77 
REMARK   31  A    between atoms: CB_70  and  CG_71 
REMARK       I    between atoms: C_77  and  N_79 
REMARK   32  A    between atoms: N_79  and  CA_80 
REMARK   33  A    between atoms: CA_80  and  CB_81 
REMARK   34  A    between atoms: CA_80  and  C_91 
REMARK   35  A    between atoms: CB_81  and  CG_82 
REMARK       I    between atoms: C_91  and  N_93 
REMARK   36  A    between atoms: N_93  and  CA_94 
REMARK   37  A    between atoms: CA_94  and  C_95 
REMARK       I    between atoms: C_95  and  N_97 
REMARK   38  A    between atoms: N_97  and  CA_98 
REMARK   39  A    between atoms: CA_98  and  C_101 
REMARK   40  A    between atoms: CA_98  and  CB_99 
REMARK       I    between atoms: C_101  and  N_103 
REMARK   41  A    between atoms: N_103  and  CA_104 
REMARK   42  A    between atoms: CA_104  and  C_105 
ROOT
ATOM      1  CA  ARG     6     -10.832 -14.741   4.368  1.00  0.00     0.186 C 
ENDROOT
BRANCH   1   2
ATOM      2  N   ARG     6      -9.655 -13.985   4.855  1.00  0.00    -0.229 NA
ATOM      3  C   TYR     5      -9.768 -12.923   5.663  1.00  0.00     0.275 C 
ATOM      4  O   TYR     5     -10.856 -12.523   6.077  1.00  0.00    -0.268 OA
BRANCH   3   5
ATOM      5  CA  TYR     5      -8.463 -12.274   6.155  1.00  0.00     0.191 C 
BRANCH   5   6
ATOM      6  N   TYR     5      -8.561 -10.802   6.326  1.00  0.00    -0.228 NA
ATOM      7  C   GLU     4      -8.644  -9.946   5.294  1.00  0.00     0.274 C 
ATOM      8  O   GLU     4      -8.787 -10.320   4.137  1.00  0.00    -0.268 OA
BRANCH   7   9
ATOM      9  CA  GLU     4      -8.882  -8.466   5.659  1.00  0.00     0.187 C 
BRANCH   9  10
ATOM     10  CB  GLU     4      -8.998  -8.317   7.184  1.00  0.00     0.045 C 
BRANCH  10  11
ATOM     11  CG  GLU     4      -9.307  -6.898   7.711  1.00  0.00     0.100 C 
BRANCH  11  12
ATOM     12  CD  GLU     4     -10.749  -6.701   8.179  1.00  0.00     0.185 C 
ATOM     13  OE1 GLU     4     -10.985  -5.711   8.919  1.00  0.00    -0.647 OA
ATOM     14  OE2 GLU     4     -11.471  -7.718   8.214  1.00  0.00    -0.647 OA
ENDBRANCH  11  12
ENDBRANCH  10  11
ENDBRANCH   9  10
BRANCH   9  15
ATOM     15  N   GLU     4     -10.094  -7.901   5.036  1.00  0.00    -0.229 NA
ATOM     16  C   PRO     3     -10.190  -7.208   3.907  1.00  0.00     0.272 C 
ATOM     17  O   PRO     3      -9.340  -7.248   3.016  1.00  0.00    -0.269 OA
BRANCH  16  18
ATOM     18  CA  PRO     3     -11.604  -6.758   3.535  1.00  0.00     0.165 C 
ATOM     19  N   PRO     3     -11.668  -5.537   2.704  1.00  0.00    -0.312 N 
ATOM     20  CD  PRO     3     -12.720  -5.694   1.666  1.00  0.00     0.105 C 
ATOM     21  C   ASP     2     -10.980  -4.411   2.968  1.00  0.00     0.257 C 
ATOM     22  CG  PRO     3     -13.442  -6.995   2.052  1.00  0.00     0.027 C 
ATOM     23  CB  PRO     3     -12.359  -7.821   2.740  1.00  0.00     0.034 C 
ATOM     24  O   ASP     2     -10.409  -4.267   4.059  1.00  0.00    -0.270 OA
BRANCH  21  25
ATOM     25  CA  ASP     2     -11.191  -3.165   2.078  1.00  0.00     0.195 C 
BRANCH  25  26
ATOM     26  CB  ASP     2     -10.364  -3.105   0.768  1.00  0.00     0.132 C 
BRANCH  26  27
ATOM     27  CG  ASP     2      -8.914  -2.678   1.067  1.00  0.00     0.188 C 
ATOM     28  OD2 ASP     2      -8.475  -1.729   0.368  1.00  0.00    -0.647 OA
ATOM     29  OD1 ASP     2      -8.138  -3.571   1.488  1.00  0.00    -0.647 OA
ENDBRANCH  26  27
ENDBRANCH  25  26
BRANCH  25  30
ATOM     30  N   ASP     2     -10.794  -1.923   2.762  1.00  0.00    -0.228 NA
ATOM     31  C   TYR     1     -11.406  -0.763   2.701  1.00  0.00     0.289 C 
ATOM     32  O   TYR     1     -12.496  -0.505   2.181  1.00  0.00    -0.268 OA
BRANCH  31  33
ATOM     33  CA  TYR     1     -10.592   0.347   3.359  1.00  0.00     0.385 C 
ATOM     34  N   TYR     1     -11.528   1.406   3.774  1.00  0.00     0.626 N 
BRANCH  33  35
ATOM     35  CB  TYR     1      -9.848  -0.271   4.539  1.00  0.00     0.075 C 
BRANCH  35  36
ATOM     36  CG  TYR     1      -8.400   0.227   4.665  1.00  0.00    -0.019 A 
ATOM     37  CD2 TYR     1      -7.489   0.069   3.632  1.00  0.00    -0.002 A 
ATOM     38  CE2 TYR     1      -6.231   0.647   3.717  1.00  0.00     0.027 A 
ATOM     39  CZ  TYR     1      -5.895   1.380   4.854  1.00  0.00     0.131 A 
ATOM     40  CE1 TYR     1      -6.794   1.499   5.899  1.00  0.00     0.027 A 
ATOM     41  OH  TYR     1      -4.758   2.103   4.882  1.00  0.00    -0.190 OA
ATOM     42  CD1 TYR     1      -8.052   0.921   5.814  1.00  0.00    -0.002 A 
ENDBRANCH  35  36
ENDBRANCH  33  35
ENDBRANCH  31  33
ENDBRANCH  25  30
ENDBRANCH  21  25
ENDBRANCH  16  18
ENDBRANCH   9  15
ENDBRANCH   7   9
ENDBRANCH   5   6
BRANCH   5  43
ATOM     43  CB  TYR     5      -7.984 -12.927   7.462  1.00  0.00     0.060 C 
BRANCH  43  44
ATOM     44  CG  TYR     5      -6.583 -13.548   7.325  1.00  0.00    -0.020 A 
ATOM     45  CD2 TYR     5      -5.446 -12.772   7.506  1.00  0.00    -0.002 A 
ATOM     46  CE2 TYR     5      -4.183 -13.344   7.388  1.00  0.00     0.027 A 
ATOM     47  CZ  TYR     5      -4.057 -14.692   7.088  1.00  0.00     0.131 A 
ATOM     48  CE1 TYR     5      -5.191 -15.479   6.923  1.00  0.00     0.027 A 
ATOM     49  OH  TYR     5      -2.841 -15.222   6.834  1.00  0.00    -0.190 OA
ATOM     50  CD1 TYR     5      -6.456 -14.901   7.034  1.00  0.00    -0.002 A 
ENDBRANCH  43  44
ENDBRANCH   5  43
ENDBRANCH   3   5
ENDBRANCH   1   2
BRANCH   1  51
ATOM     51  CB  ARG     6     -11.180 -14.428   2.916  1.00  0.00     0.036 C 
BRANCH  51  52
ATOM     52  CG  ARG     6     -10.143 -13.549   2.212  1.00  0.00     0.029 C 
BRANCH  52  53
ATOM     53  CD  ARG     6     -10.775 -12.233   1.769  1.00  0.00     0.145 C 
BRANCH  53  54
ATOM     54  NE  ARG     6     -11.786 -12.458   0.722  1.00  0.00    -0.083 NA
ATOM     55  CZ  ARG     6     -13.035 -11.956   0.720  1.00  0.00     0.782 C 
ATOM     56  NH2 ARG     6     -13.900 -12.292  -0.239  1.00  0.00     0.063 N 
ATOM     57  NH1 ARG     6     -13.450 -11.186   1.721  1.00  0.00     0.063 N 
ENDBRANCH  53  54
ENDBRANCH  52  53
ENDBRANCH  51  52
ENDBRANCH   1  51
BRANCH   1  58
ATOM     58  C   ARG     6     -10.630 -16.260   4.453  1.00  0.00     0.274 C 
ATOM     59  N   ASN     7     -11.661 -16.953   4.928  1.00  0.00    -0.228 NA
ATOM     60  O   ARG     6      -9.557 -16.745   4.092  1.00  0.00    -0.268 OA
BRANCH  59  61
ATOM     61  CA  ASN     7     -11.690 -18.429   4.992  1.00  0.00     0.196 C 
BRANCH  61  62
ATOM     62  C   ASN     7     -10.477 -18.987   5.761  1.00  0.00     0.275 C 
ATOM     63  N   PHE     8      -9.599 -19.720   5.060  1.00  0.00    -0.228 NA
ATOM     64  O   ASN     7     -10.181 -18.437   6.804  1.00  0.00    -0.268 OA
BRANCH  63  65
ATOM     65  CA  PHE     8      -8.330 -20.269   5.599  1.00  0.00     0.191 C 
BRANCH  65  66
ATOM     66  CB  PHE     8      -8.534 -21.764   5.878  1.00  0.00     0.060 C 
BRANCH  66  67
ATOM     67  CG  PHE     8      -9.454 -22.480   4.872  1.00  0.00    -0.020 A 
ATOM     68  CD1 PHE     8      -8.973 -22.824   3.616  1.00  0.00    -0.004 A 
ATOM     69  CE1 PHE     8      -9.834 -23.379   2.670  1.00  0.00    -0.000 A 
ATOM     70  CZ  PHE     8     -11.163 -23.598   2.995  1.00  0.00    -0.000 A 
ATOM     71  CE2 PHE     8     -11.645 -23.266   4.257  1.00  0.00    -0.000 A 
ATOM     72  CD2 PHE     8     -10.783 -22.711   5.203  1.00  0.00    -0.004 A 
ENDBRANCH  66  67
ENDBRANCH  65  66
BRANCH  65  73
ATOM     73  C   PHE     8      -7.084 -20.016   4.721  1.00  0.00     0.275 C 
ATOM     74  N   TRP     9      -6.109 -20.923   4.800  1.00  0.00    -0.228 NA
ATOM     75  O   PHE     8      -6.899 -18.921   4.184  1.00  0.00    -0.268 OA
BRANCH  74  76
ATOM     76  CA  TRP     9      -4.913 -20.871   3.923  1.00  0.00     0.191 C 
BRANCH  76  77
ATOM     77  CB  TRP     9      -5.373 -20.876   2.456  1.00  0.00     0.062 C 
BRANCH  77  78
ATOM     78  CG  TRP     9      -5.163 -22.223   1.765  1.00  0.00     0.001 A 
ATOM     79  CD1 TRP     9      -6.121 -23.018   1.297  1.00  0.00     0.095 A 
ATOM     80  NE1 TRP     9      -5.619 -24.217   1.034  1.00  0.00    -0.244 NA
ATOM     81  CE2 TRP     9      -4.323 -24.224   1.304  1.00  0.00     0.081 A 
ATOM     82  CD2 TRP     9      -3.989 -22.969   1.789  1.00  0.00     0.015 A 
ATOM     83  CZ2 TRP     9      -3.358 -25.231   1.290  1.00  0.00     0.019 A 
ATOM     84  CE3 TRP     9      -2.716 -22.709   2.273  1.00  0.00     0.001 A 
ATOM     85  CZ3 TRP     9      -1.757 -23.716   2.272  1.00  0.00     0.000 A 
ATOM     86  CH2 TRP     9      -2.079 -24.972   1.761  1.00  0.00     0.002 A 
ENDBRANCH  77  78
ENDBRANCH  76  77
BRANCH  76  87
ATOM     87  C   TRP     9      -3.953 -19.695   4.216  1.00  0.00     0.275 C 
ATOM     88  O   TRP     9      -3.540 -18.979   3.309  1.00  0.00    -0.268 OA
ATOM     89  N   GLY    10      -3.693 -19.453   5.500  1.00  0.00    -0.226 NA
BRANCH  89  90
ATOM     90  CA  GLY    10      -2.830 -18.342   5.985  1.00  0.00     0.218 C 
BRANCH  90  91
ATOM     91  C   GLY    10      -1.314 -18.598   5.970  1.00  0.00     0.277 C 
ATOM     92  N   CYS    11      -0.956 -19.869   6.144  1.00  0.00    -0.228 NA
ATOM     93  O   GLY    10      -0.524 -17.661   5.972  1.00  0.00    -0.268 OA
BRANCH  92  94
ATOM     94  CA  CYS    11       0.424 -20.403   6.151  1.00  0.00     0.198 C 
BRANCH  94  95
ATOM     95  C   CYS    11       0.386 -21.835   5.581  1.00  0.00     0.275 C 
ATOM     96  O   CYS    11       0.857 -22.046   4.469  1.00  0.00    -0.268 OA
ATOM     97  N   GLY    12      -0.340 -22.712   6.258  1.00  0.00    -0.225 NA
BRANCH  97  98
ATOM     98  CA  GLY    12      -0.496 -24.115   5.844  1.00  0.00     0.226 C 
BRANCH  98  99
ATOM     99  C   GLY    12      -1.879 -24.606   6.329  1.00  0.00     0.211 C 
ATOM    100  O1  GLY    12      -2.836 -24.484   5.522  1.00  0.00    -0.646 OA
ATOM    101  O2  GLY    12      -1.949 -25.118   7.462  1.00  0.00    -0.646 OA
ENDBRANCH  98  99
ENDBRANCH  97  98
ENDBRANCH  94  95
BRANCH  94 102
ATOM    102  CB  CYS    11       0.926 -20.545   7.586  1.00  0.00     0.103 C 
ATOM    103  SG  CYS    11      -0.298 -20.202   8.908  1.00  0.00    -0.080 SA
ENDBRANCH  94 102
ENDBRANCH  92  94
ENDBRANCH  90  91
ENDBRANCH  89  90
ENDBRANCH  76  87
ENDBRANCH  74  76
ENDBRANCH  65  73
ENDBRANCH  63  65
ENDBRANCH  61  62
BRANCH  61 104
ATOM    104  CB  ASN     7     -11.778 -19.045   3.590  1.00  0.00     0.126 C 
BRANCH 104 105
ATOM    105  CG  ASN     7     -12.668 -18.273   2.598  1.00  0.00     0.276 C 
ATOM    106  ND2 ASN     7     -13.962 -18.465   2.714  1.00  0.00    -0.107 N 
ATOM    107  OD1 ASN     7     -12.258 -17.634   1.637  1.00  0.00    -0.269 OA
ENDBRANCH 104 105
ENDBRANCH  61 104
ENDBRANCH  59  61
ENDBRANCH   1  58
TORSDOF 42
ENDMDL
MODEL 4
REMARK VINA RESULT:      -5.9      3.119      5.120
REMARK WARNING: 32 MAX_TORS EXCEEDED!!!
REMARK  42 active torsions:
REMARK  status: ('A' for Active; 'I' for Inactive)
REMARK    1  A    between atoms: CA_2  and  CB_3 
REMARK    2  A    between atoms: CA_2  and  C_11 
REMARK    3  A    between atoms: CB_3  and  CG_4 
REMARK       I    between atoms: C_11  and  N_13 
REMARK    4  A    between atoms: N_13  and  CA_14 
REMARK    5  A    between atoms: CA_14  and  CB_15 
REMARK    6  A    between atoms: CA_14  and  C_19 
REMARK    7  A    between atoms: CB_15  and  CG_16 
REMARK       I    between atoms: C_19  and  N_21 
REMARK    8  A    between atoms: CA_22  and  C_26 
REMARK       I    between atoms: C_26  and  N_28 
REMARK    9  A    between atoms: N_28  and  CA_29 
REMARK   10  A    between atoms: CA_29  and  C_35 
REMARK   11  A    between atoms: CA_29  and  CB_30 
REMARK   12  A    between atoms: CB_30  and  CG_31 
REMARK   13  A    between atoms: CG_31  and  CD_32 
REMARK       I    between atoms: C_35  and  N_37 
REMARK   14  A    between atoms: N_37  and  CA_38 
REMARK   15  A    between atoms: CA_38  and  CB_39 
REMARK   16  A    between atoms: CA_38  and  C_47 
REMARK   17  A    between atoms: CB_39  and  CG_40 
REMARK       I    between atoms: C_47  and  N_49 
REMARK   18  A    between atoms: N_49  and  CA_50 
REMARK   19  A    between atoms: CA_50  and  CB_51 
REMARK   20  A    between atoms: CA_50  and  C_58 
REMARK   21  A    between atoms: CB_51  and  CG_52 
REMARK   22  A    between atoms: CG_52  and  CD_53 
REMARK   23  A    between atoms: CD_53  and  NE_54 
REMARK       I    between atoms: C_58  and  N_60 
REMARK   24  A    between atoms: N_60  and  CA_61 
REMARK   25  A    between atoms: CA_61  and  C_66 
REMARK   26  A    between atoms: CA_61  and  CB_62 
REMARK   27  A    between atoms: CB_62  and  CG_63 
REMARK       I    between atoms: C_66  and  N_68 
REMARK   28  A    between atoms: N_68  and  CA_69 
REMARK   29  A    between atoms: CA_69  and  CB_70 
REMARK   30  A    between atoms: CA_69  and  C_77 
REMARK   31  A    between atoms: CB_70  and  CG_71 
REMARK       I    between atoms: C_77  and  N_79 
REMARK   32  A    between atoms: N_79  and  CA_80 
REMARK   33  A    between atoms: CA_80  and  CB_81 
REMARK   34  A    between atoms: CA_80  and  C_91 
REMARK   35  A    between atoms: CB_81  and  CG_82 
REMARK       I    between atoms: C_91  and  N_93 
REMARK   36  A    between atoms: N_93  and  CA_94 
REMARK   37  A    between atoms: CA_94  and  C_95 
REMARK       I    between atoms: C_95  and  N_97 
REMARK   38  A    between atoms: N_97  and  CA_98 
REMARK   39  A    between atoms: CA_98  and  C_101 
REMARK   40  A    between atoms: CA_98  and  CB_99 
REMARK       I    between atoms: C_101  and  N_103 
REMARK   41  A    between atoms: N_103  and  CA_104 
REMARK   42  A    between atoms: CA_104  and  C_105 
ROOT
ATOM      1  CA  ARG     6     -10.199 -14.197   4.445  1.00  0.00     0.186 C 
ENDROOT
BRANCH   1   2
ATOM      2  N   ARG     6      -9.338 -13.007   4.639  1.00  0.00    -0.229 NA
ATOM      3  C   TYR     5      -9.644 -12.033   5.507  1.00  0.00     0.275 C 
ATOM      4  O   TYR     5     -10.646 -12.078   6.220  1.00  0.00    -0.268 OA
BRANCH   3   5
ATOM      5  CA  TYR     5      -8.627 -10.891   5.665  1.00  0.00     0.191 C 
BRANCH   5   6
ATOM      6  N   TYR     5      -9.100  -9.595   5.114  1.00  0.00    -0.228 NA
ATOM      7  C   GLU     4      -8.786  -9.163   3.881  1.00  0.00     0.274 C 
ATOM      8  O   GLU     4      -8.203  -9.864   3.065  1.00  0.00    -0.268 OA
BRANCH   7   9
ATOM      9  CA  GLU     4      -9.479  -7.864   3.423  1.00  0.00     0.187 C 
BRANCH   9  10
ATOM     10  CB  GLU     4      -8.507  -7.025   2.576  1.00  0.00     0.045 C 
BRANCH  10  11
ATOM     11  CG  GLU     4      -9.114  -5.810   1.841  1.00  0.00     0.100 C 
BRANCH  11  12
ATOM     12  CD  GLU     4      -8.095  -4.746   1.437  1.00  0.00     0.185 C 
ATOM     13  OE1 GLU     4      -6.876  -5.040   1.551  1.00  0.00    -0.647 OA
ATOM     14  OE2 GLU     4      -8.477  -3.559   1.480  1.00  0.00    -0.647 OA
ENDBRANCH  11  12
ENDBRANCH  10  11
ENDBRANCH   9  10
BRANCH   9  15
ATOM     15  N   GLU     4      -9.963  -7.035   4.543  1.00  0.00    -0.229 NA
ATOM     16  C   PRO     3     -11.110  -6.374   4.638  1.00  0.00     0.272 C 
ATOM     17  O   PRO     3     -12.106  -6.648   3.966  1.00  0.00    -0.269 OA
BRANCH  16  18
ATOM     18  CA  PRO     3     -11.312  -5.600   5.942  1.00  0.00     0.165 C 
ATOM     19  N   PRO     3     -11.317  -4.128   5.798  1.00  0.00    -0.312 N 
ATOM     20  CD  PRO     3     -12.367  -3.544   6.670  1.00  0.00     0.105 C 
ATOM     21  C   ASP     2     -10.396  -3.439   5.099  1.00  0.00     0.257 C 
ATOM     22  CG  PRO     3     -12.856  -4.727   7.520  1.00  0.00     0.027 C 
ATOM     23  CB  PRO     3     -12.640  -5.937   6.616  1.00  0.00     0.034 C 
ATOM     24  O   ASP     2      -9.359  -3.997   4.709  1.00  0.00    -0.270 OA
BRANCH  21  25
ATOM     25  CA  ASP     2     -10.450  -1.895   5.087  1.00  0.00     0.195 C 
BRANCH  25  26
ATOM     26  CB  ASP     2     -11.495  -1.249   4.142  1.00  0.00     0.132 C 
BRANCH  26  27
ATOM     27  CG  ASP     2     -11.182  -1.596   2.675  1.00  0.00     0.188 C 
ATOM     28  OD2 ASP     2     -10.979  -0.614   1.917  1.00  0.00    -0.647 OA
ATOM     29  OD1 ASP     2     -11.690  -2.653   2.225  1.00  0.00    -0.647 OA
ENDBRANCH  26  27
ENDBRANCH  25  26
BRANCH  25  30
ATOM     30  N   ASP     2      -9.186  -1.300   4.618  1.00  0.00    -0.228 NA
ATOM     31  C   TYR     1      -8.156  -0.961   5.357  1.00  0.00     0.289 C 
ATOM     32  O   TYR     1      -7.974  -1.187   6.558  1.00  0.00    -0.268 OA
BRANCH  31  33
ATOM     33  CA  TYR     1      -7.116  -0.177   4.562  1.00  0.00     0.385 C 
ATOM     34  N   TYR     1      -7.320  -0.477   3.135  1.00  0.00     0.626 N 
BRANCH  33  35
ATOM     35  CB  TYR     1      -7.317   1.302   4.883  1.00  0.00     0.075 C 
BRANCH  35  36
ATOM     36  CG  TYR     1      -8.686   1.834   4.431  1.00  0.00    -0.019 A 
ATOM     37  CD2 TYR     1      -9.683   2.134   5.346  1.00  0.00    -0.002 A 
ATOM     38  CE2 TYR     1     -10.857   2.739   4.924  1.00  0.00     0.027 A 
ATOM     39  CZ  TYR     1     -11.022   3.036   3.572  1.00  0.00     0.131 A 
ATOM     40  CE1 TYR     1     -10.040   2.697   2.659  1.00  0.00     0.027 A 
ATOM     41  OH  TYR     1     -12.064   3.788   3.165  1.00  0.00    -0.190 OA
ATOM     42  CD1 TYR     1      -8.866   2.091   3.080  1.00  0.00    -0.002 A 
ENDBRANCH  35  36
ENDBRANCH  33  35
ENDBRANCH  31  33
ENDBRANCH  25  30
ENDBRANCH  21  25
ENDBRANCH  16  18
ENDBRANCH   9  15
ENDBRANCH   7   9
ENDBRANCH   5   6
BRANCH   5  43
ATOM     43  CB  TYR     5      -8.218 -10.720   7.138  1.00  0.00     0.060 C 
BRANCH  43  44
ATOM     44  CG  TYR     5      -6.828 -11.311   7.430  1.00  0.00    -0.020 A 
ATOM     45  CD2 TYR     5      -6.012 -10.751   8.405  1.00  0.00    -0.002 A 
ATOM     46  CE2 TYR     5      -4.759 -11.296   8.667  1.00  0.00     0.027 A 
ATOM     47  CZ  TYR     5      -4.322 -12.402   7.954  1.00  0.00     0.131 A 
ATOM     48  CE1 TYR     5      -5.139 -12.979   6.988  1.00  0.00     0.027 A 
ATOM     49  OH  TYR     5      -3.056 -12.850   8.103  1.00  0.00    -0.190 OA
ATOM     50  CD1 TYR     5      -6.391 -12.425   6.721  1.00  0.00    -0.002 A 
ENDBRANCH  43  44
ENDBRANCH   5  43
ENDBRANCH   3   5
ENDBRANCH   1   2
BRANCH   1  51
ATOM     51  CB  ARG     6     -10.536 -14.453   2.979  1.00  0.00     0.036 C 
BRANCH  51  52
ATOM     52  CG  ARG     6      -9.983 -13.390   2.027  1.00  0.00     0.029 C 
BRANCH  52  53
ATOM     53  CD  ARG     6     -11.113 -12.509   1.501  1.00  0.00     0.145 C 
BRANCH  53  54
ATOM     54  NE  ARG     6     -11.305 -11.329   2.361  1.00  0.00    -0.083 NA
ATOM     55  CZ  ARG     6     -12.315 -11.156   3.235  1.00  0.00     0.782 C 
ATOM     56  NH2 ARG     6     -12.441 -10.009   3.906  1.00  0.00     0.063 N 
ATOM     57  NH1 ARG     6     -13.247 -12.091   3.377  1.00  0.00     0.063 N 
ENDBRANCH  53  54
ENDBRANCH  52  53
ENDBRANCH  51  52
ENDBRANCH   1  51
BRANCH   1  58
ATOM     58  C   ARG     6      -9.553 -15.482   4.978  1.00  0.00     0.274 C 
ATOM     59  N   ASN     7      -8.236 -15.576   4.817  1.00  0.00    -0.228 NA
ATOM     60  O   ARG     6     -10.264 -16.337   5.507  1.00  0.00    -0.268 OA
BRANCH  59  61
ATOM     61  CA  ASN     7      -7.427 -16.691   5.351  1.00  0.00     0.196 C 
BRANCH  61  62
ATOM     62  C   ASN     7      -7.342 -17.860   4.349  1.00  0.00     0.275 C 
ATOM     63  N   PHE     8      -6.121 -18.354   4.096  1.00  0.00    -0.228 NA
ATOM     64  O   ASN     7      -8.357 -18.500   4.157  1.00  0.00    -0.268 OA
BRANCH  63  65
ATOM     65  CA  PHE     8      -5.844 -19.528   3.232  1.00  0.00     0.191 C 
BRANCH  65  66
ATOM     66  CB  PHE     8      -4.391 -19.435   2.746  1.00  0.00     0.060 C 
BRANCH  66  67
ATOM     67  CG  PHE     8      -3.351 -19.991   3.738  1.00  0.00    -0.020 A 
ATOM     68  CD1 PHE     8      -3.025 -19.267   4.877  1.00  0.00    -0.004 A 
ATOM     69  CE1 PHE     8      -2.011 -19.721   5.721  1.00  0.00    -0.000 A 
ATOM     70  CZ  PHE     8      -1.346 -20.900   5.425  1.00  0.00    -0.000 A 
ATOM     71  CE2 PHE     8      -1.681 -21.634   4.291  1.00  0.00    -0.000 A 
ATOM     72  CD2 PHE     8      -2.695 -21.180   3.447  1.00  0.00    -0.004 A 
ENDBRANCH  66  67
ENDBRANCH  65  66
BRANCH  65  73
ATOM     73  C   PHE     8      -6.143 -20.899   3.878  1.00  0.00     0.275 C 
ATOM     74  N   TRP     9      -6.652 -21.835   3.076  1.00  0.00    -0.228 NA
ATOM     75  O   PHE     8      -6.150 -21.034   5.105  1.00  0.00    -0.268 OA
BRANCH  74  76
ATOM     76  CA  TRP     9      -6.872 -23.230   3.532  1.00  0.00     0.191 C 
BRANCH  76  77
ATOM     77  CB  TRP     9      -5.602 -23.724   4.244  1.00  0.00     0.062 C 
BRANCH  77  78
ATOM     78  CG  TRP     9      -4.539 -24.252   3.281  1.00  0.00     0.001 A 
ATOM     79  CD1 TRP     9      -4.709 -24.487   1.983  1.00  0.00     0.095 A 
ATOM     80  NE1 TRP     9      -3.694 -25.206   1.521  1.00  0.00    -0.244 NA
ATOM     81  CE2 TRP     9      -2.833 -25.438   2.501  1.00  0.00     0.081 A 
ATOM     82  CD2 TRP     9      -3.341 -24.855   3.651  1.00  0.00     0.015 A 
ATOM     83  CZ2 TRP     9      -1.668 -26.201   2.576  1.00  0.00     0.019 A 
ATOM     84  CE3 TRP     9      -2.715 -25.035   4.875  1.00  0.00     0.001 A 
ATOM     85  CZ3 TRP     9      -1.560 -25.807   4.955  1.00  0.00     0.000 A 
ATOM     86  CH2 TRP     9      -1.031 -26.372   3.796  1.00  0.00     0.002 A 
ENDBRANCH  77  78
ENDBRANCH  76  77
BRANCH  76  87
ATOM     87  C   TRP     9      -8.129 -23.427   4.409  1.00  0.00     0.275 C 
ATOM     88  O   TRP     9      -9.074 -22.647   4.341  1.00  0.00    -0.268 OA
ATOM     89  N   GLY    10      -8.161 -24.534   5.151  1.00  0.00    -0.226 NA
BRANCH  89  90
ATOM     90  CA  GLY    10      -9.301 -24.924   6.026  1.00  0.00     0.218 C 
BRANCH  90  91
ATOM     91  C   GLY    10      -9.829 -26.358   5.860  1.00  0.00     0.277 C 
ATOM     92  N   CYS    11     -10.271 -26.657   4.639  1.00  0.00    -0.228 NA
ATOM     93  O   GLY    10      -9.980 -27.083   6.836  1.00  0.00    -0.268 OA
BRANCH  92  94
ATOM     94  CA  CYS    11     -10.810 -27.961   4.192  1.00  0.00     0.198 C 
BRANCH  94  95
ATOM     95  C   CYS    11     -10.225 -28.268   2.799  1.00  0.00     0.275 C 
ATOM     96  O   CYS    11     -10.067 -29.436   2.463  1.00  0.00    -0.268 OA
ATOM     97  N   GLY    12      -9.744 -27.231   2.129  1.00  0.00    -0.225 NA
BRANCH  97  98
ATOM     98  CA  GLY    12      -9.137 -27.351   0.794  1.00  0.00     0.226 C 
BRANCH  98  99
ATOM     99  C   GLY    12      -7.949 -26.364   0.720  1.00  0.00     0.211 C 
ATOM    100  O1  GLY    12      -8.188 -25.169   1.026  1.00  0.00    -0.646 OA
ATOM    101  O2  GLY    12      -6.836 -26.820   0.399  1.00  0.00    -0.646 OA
ENDBRANCH  98  99
ENDBRANCH  97  98
ENDBRANCH  94  95
BRANCH  94 102
ATOM    102  CB  CYS    11     -12.321 -27.865   3.992  1.00  0.00     0.103 C 
ATOM    103  SG  CYS    11     -13.272 -29.409   4.269  1.00  0.00    -0.080 SA
ENDBRANCH  94 102
ENDBRANCH  92  94
ENDBRANCH  90  91
ENDBRANCH  89  90
ENDBRANCH  76  87
ENDBRANCH  74  76
ENDBRANCH  65  73
ENDBRANCH  63  65
ENDBRANCH  61  62
BRANCH  61 104
ATOM    104  CB  ASN     7      -7.966 -17.171   6.704  1.00  0.00     0.126 C 
BRANCH 104 105
ATOM    105  CG  ASN     7      -6.886 -17.578   7.723  1.00  0.00     0.276 C 
ATOM    106  ND2 ASN     7      -6.962 -18.806   8.184  1.00  0.00    -0.107 N 
ATOM    107  OD1 ASN     7      -6.081 -16.813   8.237  1.00  0.00    -0.269 OA
ENDBRANCH 104 105
ENDBRANCH  61 104
ENDBRANCH  59  61
ENDBRANCH   1  58
TORSDOF 42
ENDMDL
MODEL 5
REMARK VINA RESULT:      -5.8      3.319      7.259
REMARK WARNING: 32 MAX_TORS EXCEEDED!!!
REMARK  42 active torsions:
REMARK  status: ('A' for Active; 'I' for Inactive)
REMARK    1  A    between atoms: CA_2  and  CB_3 
REMARK    2  A    between atoms: CA_2  and  C_11 
REMARK    3  A    between atoms: CB_3  and  CG_4 
REMARK       I    between atoms: C_11  and  N_13 
REMARK    4  A    between atoms: N_13  and  CA_14 
REMARK    5  A    between atoms: CA_14  and  CB_15 
REMARK    6  A    between atoms: CA_14  and  C_19 
REMARK    7  A    between atoms: CB_15  and  CG_16 
REMARK       I    between atoms: C_19  and  N_21 
REMARK    8  A    between atoms: CA_22  and  C_26 
REMARK       I    between atoms: C_26  and  N_28 
REMARK    9  A    between atoms: N_28  and  CA_29 
REMARK   10  A    between atoms: CA_29  and  C_35 
REMARK   11  A    between atoms: CA_29  and  CB_30 
REMARK   12  A    between atoms: CB_30  and  CG_31 
REMARK   13  A    between atoms: CG_31  and  CD_32 
REMARK       I    between atoms: C_35  and  N_37 
REMARK   14  A    between atoms: N_37  and  CA_38 
REMARK   15  A    between atoms: CA_38  and  CB_39 
REMARK   16  A    between atoms: CA_38  and  C_47 
REMARK   17  A    between atoms: CB_39  and  CG_40 
REMARK       I    between atoms: C_47  and  N_49 
REMARK   18  A    between atoms: N_49  and  CA_50 
REMARK   19  A    between atoms: CA_50  and  CB_51 
REMARK   20  A    between atoms: CA_50  and  C_58 
REMARK   21  A    between atoms: CB_51  and  CG_52 
REMARK   22  A    between atoms: CG_52  and  CD_53 
REMARK   23  A    between atoms: CD_53  and  NE_54 
REMARK       I    between atoms: C_58  and  N_60 
REMARK   24  A    between atoms: N_60  and  CA_61 
REMARK   25  A    between atoms: CA_61  and  C_66 
REMARK   26  A    between atoms: CA_61  and  CB_62 
REMARK   27  A    between atoms: CB_62  and  CG_63 
REMARK       I    between atoms: C_66  and  N_68 
REMARK   28  A    between atoms: N_68  and  CA_69 
REMARK   29  A    between atoms: CA_69  and  CB_70 
REMARK   30  A    between atoms: CA_69  and  C_77 
REMARK   31  A    between atoms: CB_70  and  CG_71 
REMARK       I    between atoms: C_77  and  N_79 
REMARK   32  A    between atoms: N_79  and  CA_80 
REMARK   33  A    between atoms: CA_80  and  CB_81 
REMARK   34  A    between atoms: CA_80  and  C_91 
REMARK   35  A    between atoms: CB_81  and  CG_82 
REMARK       I    between atoms: C_91  and  N_93 
REMARK   36  A    between atoms: N_93  and  CA_94 
REMARK   37  A    between atoms: CA_94  and  C_95 
REMARK       I    between atoms: C_95  and  N_97 
REMARK   38  A    between atoms: N_97  and  CA_98 
REMARK   39  A    between atoms: CA_98  and  C_101 
REMARK   40  A    between atoms: CA_98  and  CB_99 
REMARK       I    between atoms: C_101  and  N_103 
REMARK   41  A    between atoms: N_103  and  CA_104 
REMARK   42  A    between atoms: CA_104  and  C_105 
ROOT
ATOM      1  CA  ARG     6     -15.084 -10.644   7.662  1.00  0.00     0.186 C 
ENDROOT
BRANCH   1   2
ATOM      2  N   ARG     6     -14.160  -9.806   6.862  1.00  0.00    -0.229 NA
ATOM      3  C   TYR     5     -12.942  -9.463   7.301  1.00  0.00     0.275 C 
ATOM      4  O   TYR     5     -12.500  -9.845   8.385  1.00  0.00    -0.268 OA
BRANCH   3   5
ATOM      5  CA  TYR     5     -12.054  -8.653   6.341  1.00  0.00     0.191 C 
BRANCH   5   6
ATOM      6  N   TYR     5     -12.530  -7.262   6.125  1.00  0.00    -0.228 NA
ATOM      7  C   GLU     4     -12.613  -6.353   7.111  1.00  0.00     0.274 C 
ATOM      8  O   GLU     4     -12.172  -6.556   8.235  1.00  0.00    -0.268 OA
BRANCH   7   9
ATOM      9  CA  GLU     4     -12.992  -4.921   6.681  1.00  0.00     0.187 C 
BRANCH   9  10
ATOM     10  CB  GLU     4     -14.515  -4.818   6.498  1.00  0.00     0.045 C 
BRANCH  10  11
ATOM     11  CG  GLU     4     -15.053  -3.455   6.008  1.00  0.00     0.100 C 
BRANCH  11  12
ATOM     12  CD  GLU     4     -15.821  -3.520   4.688  1.00  0.00     0.185 C 
ATOM     13  OE1 GLU     4     -16.795  -2.736   4.547  1.00  0.00    -0.647 OA
ATOM     14  OE2 GLU     4     -15.765  -4.596   4.059  1.00  0.00    -0.647 OA
ENDBRANCH  11  12
ENDBRANCH  10  11
ENDBRANCH   9  10
BRANCH   9  15
ATOM     15  N   GLU     4     -12.337  -4.497   5.429  1.00  0.00    -0.229 NA
ATOM     16  C   PRO     3     -11.101  -4.041   5.263  1.00  0.00     0.272 C 
ATOM     17  O   PRO     3     -10.190  -4.252   6.065  1.00  0.00    -0.269 OA
BRANCH  16  18
ATOM     18  CA  PRO     3     -10.725  -3.682   3.824  1.00  0.00     0.165 C 
ATOM     19  N   PRO     3     -10.156  -2.328   3.651  1.00  0.00    -0.312 N 
ATOM     20  CD  PRO     3      -9.034  -2.379   2.679  1.00  0.00     0.105 C 
ATOM     21  C   ASP     2     -10.692  -1.214   4.181  1.00  0.00     0.257 C 
ATOM     22  CG  PRO     3      -9.094  -3.803   2.104  1.00  0.00     0.027 C 
ATOM     23  CB  PRO     3      -9.678  -4.631   3.246  1.00  0.00     0.034 C 
ATOM     24  O   ASP     2     -11.829  -1.240   4.676  1.00  0.00    -0.270 OA
BRANCH  21  25
ATOM     25  CA  ASP     2     -10.060   0.160   3.862  1.00  0.00     0.195 C 
BRANCH  25  26
ATOM     26  CB  ASP     2     -10.294   0.711   2.432  1.00  0.00     0.132 C 
BRANCH  26  27
ATOM     27  CG  ASP     2     -10.712   2.192   2.487  1.00  0.00     0.188 C 
ATOM     28  OD2 ASP     2     -11.951   2.406   2.460  1.00  0.00    -0.647 OA
ATOM     29  OD1 ASP     2      -9.912   3.023   1.992  1.00  0.00    -0.647 OA
ENDBRANCH  26  27
ENDBRANCH  25  26
BRANCH  25  30
ATOM     30  N   ASP     2      -8.591   0.129   3.955  1.00  0.00    -0.228 NA
ATOM     31  C   TYR     1      -7.853   0.660   4.902  1.00  0.00     0.289 C 
ATOM     32  O   TYR     1      -8.227   1.168   5.963  1.00  0.00    -0.268 OA
BRANCH  31  33
ATOM     33  CA  TYR     1      -6.367   0.621   4.558  1.00  0.00     0.385 C 
ATOM     34  N   TYR     1      -6.210  -0.168   3.324  1.00  0.00     0.626 N 
BRANCH  33  35
ATOM     35  CB  TYR     1      -5.900   2.065   4.391  1.00  0.00     0.075 C 
BRANCH  35  36
ATOM     36  CG  TYR     1      -4.690   2.411   5.272  1.00  0.00    -0.019 A 
ATOM     37  CD2 TYR     1      -3.985   3.592   5.101  1.00  0.00    -0.002 A 
ATOM     38  CE2 TYR     1      -2.985   3.943   5.994  1.00  0.00     0.027 A 
ATOM     39  CZ  TYR     1      -2.693   3.091   7.058  1.00  0.00     0.131 A 
ATOM     40  CE1 TYR     1      -3.372   1.894   7.200  1.00  0.00     0.027 A 
ATOM     41  OH  TYR     1      -1.862   3.493   8.041  1.00  0.00    -0.190 OA
ATOM     42  CD1 TYR     1      -4.373   1.543   6.306  1.00  0.00    -0.002 A 
ENDBRANCH  35  36
ENDBRANCH  33  35
ENDBRANCH  31  33
ENDBRANCH  25  30
ENDBRANCH  21  25
ENDBRANCH  16  18
ENDBRANCH   9  15
ENDBRANCH   7   9
ENDBRANCH   5   6
BRANCH   5  43
ATOM     43  CB  TYR     5     -10.593  -8.642   6.822  1.00  0.00     0.060 C 
BRANCH  43  44
ATOM     44  CG  TYR     5      -9.619  -9.136   5.739  1.00  0.00    -0.020 A 
ATOM     45  CD2 TYR     5      -9.833  -8.828   4.401  1.00  0.00    -0.002 A 
ATOM     46  CE2 TYR     5      -8.942  -9.273   3.429  1.00  0.00     0.027 A 
ATOM     47  CZ  TYR     5      -7.838 -10.027   3.795  1.00  0.00     0.131 A 
ATOM     48  CE1 TYR     5      -7.607 -10.325   5.133  1.00  0.00     0.027 A 
ATOM     49  OH  TYR     5      -7.048 -10.579   2.848  1.00  0.00    -0.190 OA
ATOM     50  CD1 TYR     5      -8.506  -9.885   6.104  1.00  0.00    -0.002 A 
ENDBRANCH  43  44
ENDBRANCH   5  43
ENDBRANCH   3   5
ENDBRANCH   1   2
BRANCH   1  51
ATOM     51  CB  ARG     6     -16.292  -9.868   8.178  1.00  0.00     0.036 C 
BRANCH  51  52
ATOM     52  CG  ARG     6     -16.243  -8.371   7.859  1.00  0.00     0.029 C 
BRANCH  52  53
ATOM     53  CD  ARG     6     -17.270  -8.023   6.786  1.00  0.00     0.145 C 
BRANCH  53  54
ATOM     54  NE  ARG     6     -16.610  -7.647   5.525  1.00  0.00    -0.083 NA
ATOM     55  CZ  ARG     6     -16.520  -8.423   4.428  1.00  0.00     0.782 C 
ATOM     56  NH2 ARG     6     -15.824  -8.016   3.365  1.00  0.00     0.063 N 
ATOM     57  NH1 ARG     6     -17.050  -9.641   4.424  1.00  0.00     0.063 N 
ENDBRANCH  53  54
ENDBRANCH  52  53
ENDBRANCH  51  52
ENDBRANCH   1  51
BRANCH   1  58
ATOM     58  C   ARG     6     -15.635 -11.834   6.866  1.00  0.00     0.274 C 
ATOM     59  N   ASN     7     -14.733 -12.549   6.200  1.00  0.00    -0.228 NA
ATOM     60  O   ARG     6     -16.847 -12.057   6.880  1.00  0.00    -0.268 OA
BRANCH  59  61
ATOM     61  CA  ASN     7     -15.060 -13.785   5.459  1.00  0.00     0.196 C 
BRANCH  61  62
ATOM     62  C   ASN     7     -14.047 -14.908   5.755  1.00  0.00     0.275 C 
ATOM     63  N   PHE     8     -13.638 -15.647   4.713  1.00  0.00    -0.228 NA
ATOM     64  O   ASN     7     -13.403 -14.817   6.782  1.00  0.00    -0.268 OA
BRANCH  63  65
ATOM     65  CA  PHE     8     -12.607 -16.712   4.781  1.00  0.00     0.191 C 
BRANCH  65  66
ATOM     66  CB  PHE     8     -13.185 -17.981   4.138  1.00  0.00     0.060 C 
BRANCH  66  67
ATOM     67  CG  PHE     8     -12.222 -19.184   4.129  1.00  0.00    -0.020 A 
ATOM     68  CD1 PHE     8     -11.841 -19.756   2.923  1.00  0.00    -0.004 A 
ATOM     69  CE1 PHE     8     -11.052 -20.906   2.919  1.00  0.00    -0.000 A 
ATOM     70  CZ  PHE     8     -10.641 -21.463   4.120  1.00  0.00    -0.000 A 
ATOM     71  CE2 PHE     8     -11.012 -20.883   5.329  1.00  0.00    -0.000 A 
ATOM     72  CD2 PHE     8     -11.800 -19.733   5.333  1.00  0.00    -0.004 A 
ENDBRANCH  66  67
ENDBRANCH  65  66
BRANCH  65  73
ATOM     73  C   PHE     8     -11.238 -16.336   4.170  1.00  0.00     0.275 C 
ATOM     74  N   TRP     9     -10.261 -16.053   5.034  1.00  0.00    -0.228 NA
ATOM     75  O   PHE     8     -11.132 -16.066   2.972  1.00  0.00    -0.268 OA
BRANCH  74  76
ATOM     76  CA  TRP     9      -8.868 -15.797   4.591  1.00  0.00     0.191 C 
BRANCH  76  77
ATOM     77  CB  TRP     9      -8.396 -14.461   5.187  1.00  0.00     0.062 C 
BRANCH  77  78
ATOM     78  CG  TRP     9      -9.501 -13.407   5.253  1.00  0.00     0.001 A 
ATOM     79  CD1 TRP     9     -10.242 -13.118   6.318  1.00  0.00     0.095 A 
ATOM     80  NE1 TRP     9     -11.284 -12.382   5.953  1.00  0.00    -0.244 NA
ATOM     81  CE2 TRP     9     -11.234 -12.160   4.648  1.00  0.00     0.081 A 
ATOM     82  CD2 TRP     9     -10.114 -12.811   4.155  1.00  0.00     0.015 A 
ATOM     83  CZ2 TRP     9     -12.109 -11.534   3.761  1.00  0.00     0.019 A 
ATOM     84  CE3 TRP     9      -9.863 -12.860   2.792  1.00  0.00     0.001 A 
ATOM     85  CZ3 TRP     9     -10.741 -12.248   1.904  1.00  0.00     0.000 A 
ATOM     86  CH2 TRP     9     -11.854 -11.569   2.397  1.00  0.00     0.002 A 
ENDBRANCH  77  78
ENDBRANCH  76  77
BRANCH  76  87
ATOM     87  C   TRP     9      -7.876 -16.942   4.899  1.00  0.00     0.275 C 
ATOM     88  O   TRP     9      -7.161 -16.903   5.896  1.00  0.00    -0.268 OA
ATOM     89  N   GLY    10      -7.923 -17.996   4.086  1.00  0.00    -0.226 NA
BRANCH  89  90
ATOM     90  CA  GLY    10      -7.080 -19.213   4.243  1.00  0.00     0.218 C 
BRANCH  90  91
ATOM     91  C   GLY    10      -5.628 -19.106   3.748  1.00  0.00     0.277 C 
ATOM     92  N   CYS    11      -4.700 -19.362   4.669  1.00  0.00    -0.228 NA
ATOM     93  O   GLY    10      -5.380 -18.648   2.639  1.00  0.00    -0.268 OA
BRANCH  92  94
ATOM     94  CA  CYS    11      -3.234 -19.356   4.468  1.00  0.00     0.198 C 
BRANCH  94  95
ATOM     95  C   CYS    11      -2.741 -20.816   4.497  1.00  0.00     0.275 C 
ATOM     96  O   CYS    11      -2.731 -21.421   5.563  1.00  0.00    -0.268 OA
ATOM     97  N   GLY    12      -2.169 -21.260   3.387  1.00  0.00    -0.225 NA
BRANCH  97  98
ATOM     98  CA  GLY    12      -1.630 -22.622   3.251  1.00  0.00     0.226 C 
BRANCH  98  99
ATOM     99  C   GLY    12      -2.581 -23.422   2.330  1.00  0.00     0.211 C 
ATOM    100  O1  GLY    12      -2.314 -23.414   1.102  1.00  0.00    -0.646 OA
ATOM    101  O2  GLY    12      -3.517 -24.044   2.864  1.00  0.00    -0.646 OA
ENDBRANCH  98  99
ENDBRANCH  97  98
ENDBRANCH  94  95
BRANCH  94 102
ATOM    102  CB  CYS    11      -2.545 -18.666   5.642  1.00  0.00     0.103 C 
ATOM    103  SG  CYS    11      -3.647 -18.013   6.956  1.00  0.00    -0.080 SA
ENDBRANCH  94 102
ENDBRANCH  92  94
ENDBRANCH  90  91
ENDBRANCH  89  90
ENDBRANCH  76  87
ENDBRANCH  74  76
ENDBRANCH  65  73
ENDBRANCH  63  65
ENDBRANCH  61  62
BRANCH  61 104
ATOM    104  CB  ASN     7     -15.156 -13.521   3.951  1.00  0.00     0.126 C 
BRANCH 104 105
ATOM    105  CG  ASN     7     -16.569 -13.673   3.356  1.00  0.00     0.276 C 
ATOM    106  ND2 ASN     7     -16.662 -14.405   2.270  1.00  0.00    -0.107 N 
ATOM    107  OD1 ASN     7     -17.556 -13.048   3.723  1.00  0.00    -0.269 OA
ENDBRANCH 104 105
ENDBRANCH  61 104
ENDBRANCH  59  61
ENDBRANCH   1  58
TORSDOF 42
ENDMDL
MODEL 6
REMARK VINA RESULT:      -5.8      3.601      7.816
REMARK WARNING: 32 MAX_TORS EXCEEDED!!!
REMARK  42 active torsions:
REMARK  status: ('A' for Active; 'I' for Inactive)
REMARK    1  A    between atoms: CA_2  and  CB_3 
REMARK    2  A    between atoms: CA_2  and  C_11 
REMARK    3  A    between atoms: CB_3  and  CG_4 
REMARK       I    between atoms: C_11  and  N_13 
REMARK    4  A    between atoms: N_13  and  CA_14 
REMARK    5  A    between atoms: CA_14  and  CB_15 
REMARK    6  A    between atoms: CA_14  and  C_19 
REMARK    7  A    between atoms: CB_15  and  CG_16 
REMARK       I    between atoms: C_19  and  N_21 
REMARK    8  A    between atoms: CA_22  and  C_26 
REMARK       I    between atoms: C_26  and  N_28 
REMARK    9  A    between atoms: N_28  and  CA_29 
REMARK   10  A    between atoms: CA_29  and  C_35 
REMARK   11  A    between atoms: CA_29  and  CB_30 
REMARK   12  A    between atoms: CB_30  and  CG_31 
REMARK   13  A    between atoms: CG_31  and  CD_32 
REMARK       I    between atoms: C_35  and  N_37 
REMARK   14  A    between atoms: N_37  and  CA_38 
REMARK   15  A    between atoms: CA_38  and  CB_39 
REMARK   16  A    between atoms: CA_38  and  C_47 
REMARK   17  A    between atoms: CB_39  and  CG_40 
REMARK       I    between atoms: C_47  and  N_49 
REMARK   18  A    between atoms: N_49  and  CA_50 
REMARK   19  A    between atoms: CA_50  and  CB_51 
REMARK   20  A    between atoms: CA_50  and  C_58 
REMARK   21  A    between atoms: CB_51  and  CG_52 
REMARK   22  A    between atoms: CG_52  and  CD_53 
REMARK   23  A    between atoms: CD_53  and  NE_54 
REMARK       I    between atoms: C_58  and  N_60 
REMARK   24  A    between atoms: N_60  and  CA_61 
REMARK   25  A    between atoms: CA_61  and  C_66 
REMARK   26  A    between atoms: CA_61  and  CB_62 
REMARK   27  A    between atoms: CB_62  and  CG_63 
REMARK       I    between atoms: C_66  and  N_68 
REMARK   28  A    between atoms: N_68  and  CA_69 
REMARK   29  A    between atoms: CA_69  and  CB_70 
REMARK   30  A    between atoms: CA_69  and  C_77 
REMARK   31  A    between atoms: CB_70  and  CG_71 
REMARK       I    between atoms: C_77  and  N_79 
REMARK   32  A    between atoms: N_79  and  CA_80 
REMARK   33  A    between atoms: CA_80  and  CB_81 
REMARK   34  A    between atoms: CA_80  and  C_91 
REMARK   35  A    between atoms: CB_81  and  CG_82 
REMARK       I    between atoms: C_91  and  N_93 
REMARK   36  A    between atoms: N_93  and  CA_94 
REMARK   37  A    between atoms: CA_94  and  C_95 
REMARK       I    between atoms: C_95  and  N_97 
REMARK   38  A    between atoms: N_97  and  CA_98 
REMARK   39  A    between atoms: CA_98  and  C_101 
REMARK   40  A    between atoms: CA_98  and  CB_99 
REMARK       I    between atoms: C_101  and  N_103 
REMARK   41  A    between atoms: N_103  and  CA_104 
REMARK   42  A    between atoms: CA_104  and  C_105 
ROOT
ATOM      1  CA  ARG     6     -15.180 -10.789   7.558  1.00  0.00     0.186 C 
ENDROOT
BRANCH   1   2
ATOM      2  N   ARG     6     -14.230  -9.952   6.789  1.00  0.00    -0.229 NA
ATOM      3  C   TYR     5     -13.001  -9.663   7.238  1.00  0.00     0.275 C 
ATOM      4  O   TYR     5     -12.571 -10.099   8.307  1.00  0.00    -0.268 OA
BRANCH   3   5
ATOM      5  CA  TYR     5     -12.089  -8.846   6.309  1.00  0.00     0.191 C 
BRANCH   5   6
ATOM      6  N   TYR     5     -12.548  -7.447   6.108  1.00  0.00    -0.228 NA
ATOM      7  C   GLU     4     -12.600  -6.543   7.099  1.00  0.00     0.274 C 
ATOM      8  O   GLU     4     -12.143  -6.757   8.214  1.00  0.00    -0.268 OA
BRANCH   7   9
ATOM      9  CA  GLU     4     -12.966  -5.103   6.683  1.00  0.00     0.187 C 
BRANCH   9  10
ATOM     10  CB  GLU     4     -14.455  -4.842   6.960  1.00  0.00     0.045 C 
BRANCH  10  11
ATOM     11  CG  GLU     4     -14.793  -3.521   7.686  1.00  0.00     0.100 C 
BRANCH  11  12
ATOM     12  CD  GLU     4     -14.835  -2.295   6.775  1.00  0.00     0.185 C 
ATOM     13  OE1 GLU     4     -13.754  -1.678   6.587  1.00  0.00    -0.647 OA
ATOM     14  OE2 GLU     4     -15.934  -1.715   6.666  1.00  0.00    -0.647 OA
ENDBRANCH  11  12
ENDBRANCH  10  11
ENDBRANCH   9  10
BRANCH   9  15
ATOM     15  N   GLU     4     -12.695  -4.822   5.260  1.00  0.00    -0.229 NA
ATOM     16  C   PRO     3     -11.542  -4.483   4.696  1.00  0.00     0.272 C 
ATOM     17  O   PRO     3     -10.445  -4.712   5.209  1.00  0.00    -0.269 OA
BRANCH  16  18
ATOM     18  CA  PRO     3     -11.596  -4.256   3.183  1.00  0.00     0.165 C 
ATOM     19  N   PRO     3     -10.643  -3.249   2.671  1.00  0.00    -0.312 N 
ATOM     20  CD  PRO     3     -10.061  -3.720   1.388  1.00  0.00     0.105 C 
ATOM     21  C   ASP     2     -10.467  -2.033   3.220  1.00  0.00     0.257 C 
ATOM     22  CG  PRO     3     -10.880  -4.972   1.037  1.00  0.00     0.027 C 
ATOM     23  CB  PRO     3     -11.292  -5.529   2.396  1.00  0.00     0.034 C 
ATOM     24  O   ASP     2     -11.262  -1.610   4.072  1.00  0.00    -0.270 OA
BRANCH  21  25
ATOM     25  CA  ASP     2      -9.504  -1.028   2.549  1.00  0.00     0.195 C 
BRANCH  25  26
ATOM     26  CB  ASP     2      -8.005  -1.152   2.926  1.00  0.00     0.132 C 
BRANCH  26  27
ATOM     27  CG  ASP     2      -7.126  -1.096   1.662  1.00  0.00     0.188 C 
ATOM     28  OD2 ASP     2      -7.715  -1.356   0.582  1.00  0.00    -0.647 OA
ATOM     29  OD1 ASP     2      -5.910  -1.374   1.808  1.00  0.00    -0.647 OA
ENDBRANCH  26  27
ENDBRANCH  25  26
BRANCH  25  30
ATOM     30  N   ASP     2      -9.811   0.364   2.919  1.00  0.00    -0.228 NA
ATOM     31  C   TYR     1     -10.649   1.171   2.312  1.00  0.00     0.289 C 
ATOM     32  O   TYR     1     -11.444   0.901   1.406  1.00  0.00    -0.268 OA
BRANCH  31  33
ATOM     33  CA  TYR     1     -10.548   2.600   2.837  1.00  0.00     0.385 C 
ATOM     34  N   TYR     1     -10.978   3.508   1.760  1.00  0.00     0.626 N 
BRANCH  33  35
ATOM     35  CB  TYR     1     -11.440   2.695   4.073  1.00  0.00     0.075 C 
BRANCH  35  36
ATOM     36  CG  TYR     1     -10.738   2.233   5.358  1.00  0.00    -0.019 A 
ATOM     37  CD2 TYR     1     -11.293   1.259   6.174  1.00  0.00    -0.002 A 
ATOM     38  CE2 TYR     1     -10.577   0.763   7.254  1.00  0.00     0.027 A 
ATOM     39  CZ  TYR     1      -9.300   1.260   7.509  1.00  0.00     0.131 A 
ATOM     40  CE1 TYR     1      -8.769   2.261   6.715  1.00  0.00     0.027 A 
ATOM     41  OH  TYR     1      -8.513   0.668   8.430  1.00  0.00    -0.190 OA
ATOM     42  CD1 TYR     1      -9.485   2.757   5.636  1.00  0.00    -0.002 A 
ENDBRANCH  35  36
ENDBRANCH  33  35
ENDBRANCH  31  33
ENDBRANCH  25  30
ENDBRANCH  21  25
ENDBRANCH  16  18
ENDBRANCH   9  15
ENDBRANCH   7   9
ENDBRANCH   5   6
BRANCH   5  43
ATOM     43  CB  TYR     5     -10.637  -8.858   6.815  1.00  0.00     0.060 C 
BRANCH  43  44
ATOM     44  CG  TYR     5      -9.645  -9.319   5.734  1.00  0.00    -0.020 A 
ATOM     45  CD2 TYR     5      -9.845  -8.982   4.401  1.00  0.00    -0.002 A 
ATOM     46  CE2 TYR     5      -8.938  -9.398   3.431  1.00  0.00     0.027 A 
ATOM     47  CZ  TYR     5      -7.832 -10.152   3.793  1.00  0.00     0.131 A 
ATOM     48  CE1 TYR     5      -7.616 -10.478   5.127  1.00  0.00     0.027 A 
ATOM     49  OH  TYR     5      -7.026 -10.676   2.845  1.00  0.00    -0.190 OA
ATOM     50  CD1 TYR     5      -8.531 -10.067   6.097  1.00  0.00    -0.002 A 
ENDBRANCH  43  44
ENDBRANCH   5  43
ENDBRANCH   3   5
ENDBRANCH   1   2
BRANCH   1  51
ATOM     51  CB  ARG     6     -16.403 -10.013   8.036  1.00  0.00     0.036 C 
BRANCH  51  52
ATOM     52  CG  ARG     6     -16.160  -8.508   8.172  1.00  0.00     0.029 C 
BRANCH  52  53
ATOM     53  CD  ARG     6     -17.377  -7.828   8.793  1.00  0.00     0.145 C 
BRANCH  53  54
ATOM     54  NE  ARG     6     -18.062  -6.971   7.811  1.00  0.00    -0.083 NA
ATOM     55  CZ  ARG     6     -18.180  -5.632   7.891  1.00  0.00     0.782 C 
ATOM     56  NH2 ARG     6     -18.895  -4.959   6.987  1.00  0.00     0.063 N 
ATOM     57  NH1 ARG     6     -17.659  -4.972   8.920  1.00  0.00     0.063 N 
ENDBRANCH  53  54
ENDBRANCH  52  53
ENDBRANCH  51  52
ENDBRANCH   1  51
BRANCH   1  58
ATOM     58  C   ARG     6     -15.706 -11.978   6.743  1.00  0.00     0.274 C 
ATOM     59  N   ASN     7     -14.780 -12.810   6.274  1.00  0.00    -0.228 NA
ATOM     60  O   ARG     6     -16.919 -12.097   6.567  1.00  0.00    -0.268 OA
BRANCH  59  61
ATOM     61  CA  ASN     7     -15.099 -14.060   5.553  1.00  0.00     0.196 C 
BRANCH  61  62
ATOM     62  C   ASN     7     -14.044 -15.152   5.818  1.00  0.00     0.275 C 
ATOM     63  N   PHE     8     -13.613 -15.850   4.757  1.00  0.00    -0.228 NA
ATOM     64  O   ASN     7     -13.399 -15.062   6.844  1.00  0.00    -0.268 OA
BRANCH  63  65
ATOM     65  CA  PHE     8     -12.544 -16.878   4.795  1.00  0.00     0.191 C 
BRANCH  65  66
ATOM     66  CB  PHE     8     -13.094 -18.167   4.167  1.00  0.00     0.060 C 
BRANCH  66  67
ATOM     67  CG  PHE     8     -12.077 -19.321   4.090  1.00  0.00    -0.020 A 
ATOM     68  CD1 PHE     8     -11.460 -19.779   5.246  1.00  0.00    -0.004 A 
ATOM     69  CE1 PHE     8     -10.465 -20.753   5.163  1.00  0.00    -0.000 A 
ATOM     70  CZ  PHE     8     -10.109 -21.269   3.927  1.00  0.00    -0.000 A 
ATOM     71  CE2 PHE     8     -10.735 -20.821   2.769  1.00  0.00    -0.000 A 
ATOM     72  CD2 PHE     8     -11.730 -19.847   2.852  1.00  0.00    -0.004 A 
ENDBRANCH  66  67
ENDBRANCH  65  66
BRANCH  65  73
ATOM     73  C   PHE     8     -11.207 -16.453   4.147  1.00  0.00     0.275 C 
ATOM     74  N   TRP     9     -10.199 -16.195   4.982  1.00  0.00    -0.228 NA
ATOM     75  O   PHE     8     -11.153 -16.128   2.959  1.00  0.00    -0.268 OA
BRANCH  74  76
ATOM     76  CA  TRP     9      -8.829 -15.897   4.495  1.00  0.00     0.191 C 
BRANCH  76  77
ATOM     77  CB  TRP     9      -8.395 -14.528   5.043  1.00  0.00     0.062 C 
BRANCH  77  78
ATOM     78  CG  TRP     9      -9.541 -13.519   5.121  1.00  0.00     0.001 A 
ATOM     79  CD1 TRP     9     -10.296 -13.278   6.188  1.00  0.00     0.095 A 
ATOM     80  NE1 TRP     9     -11.365 -12.577   5.831  1.00  0.00    -0.244 NA
ATOM     81  CE2 TRP     9     -11.319 -12.331   4.530  1.00  0.00     0.081 A 
ATOM     82  CD2 TRP     9     -10.173 -12.929   4.031  1.00  0.00     0.015 A 
ATOM     83  CZ2 TRP     9     -12.215 -11.726   3.649  1.00  0.00     0.019 A 
ATOM     84  CE3 TRP     9      -9.914 -12.945   2.669  1.00  0.00     0.001 A 
ATOM     85  CZ3 TRP     9     -10.813 -12.353   1.787  1.00  0.00     0.000 A 
ATOM     86  CH2 TRP     9     -11.954 -11.728   2.287  1.00  0.00     0.002 A 
ENDBRANCH  77  78
ENDBRANCH  76  77
BRANCH  76  87
ATOM     87  C   TRP     9      -7.785 -16.993   4.807  1.00  0.00     0.275 C 
ATOM     88  O   TRP     9      -7.004 -16.870   5.746  1.00  0.00    -0.268 OA
ATOM     89  N   GLY    10      -7.857 -18.100   4.070  1.00  0.00    -0.226 NA
BRANCH  89  90
ATOM     90  CA  GLY    10      -6.970 -19.283   4.246  1.00  0.00     0.218 C 
BRANCH  90  91
ATOM     91  C   GLY    10      -5.507 -19.111   3.804  1.00  0.00     0.277 C 
ATOM     92  N   CYS    11      -4.605 -19.268   4.771  1.00  0.00    -0.228 NA
ATOM     93  O   GLY    10      -5.239 -18.690   2.685  1.00  0.00    -0.268 OA
BRANCH  92  94
ATOM     94  CA  CYS    11      -3.134 -19.182   4.628  1.00  0.00     0.198 C 
BRANCH  94  95
ATOM     95  C   CYS    11      -2.575 -20.617   4.572  1.00  0.00     0.275 C 
ATOM     96  O   CYS    11      -2.098 -21.111   5.588  1.00  0.00    -0.268 OA
ATOM     97  N   GLY    12      -2.467 -21.153   3.365  1.00  0.00    -0.225 NA
BRANCH  97  98
ATOM     98  CA  GLY    12      -1.938 -22.506   3.132  1.00  0.00     0.226 C 
BRANCH  98  99
ATOM     99  C   GLY    12      -2.699 -23.117   1.933  1.00  0.00     0.211 C 
ATOM    100  O1  GLY    12      -3.857 -22.678   1.717  1.00  0.00    -0.646 OA
ATOM    101  O2  GLY    12      -2.109 -23.969   1.244  1.00  0.00    -0.646 OA
ENDBRANCH  98  99
ENDBRANCH  97  98
ENDBRANCH  94  95
BRANCH  94 102
ATOM    102  CB  CYS    11      -2.520 -18.549   5.874  1.00  0.00     0.103 C 
ATOM    103  SG  CYS    11      -3.701 -17.830   7.080  1.00  0.00    -0.080 SA
ENDBRANCH  94 102
ENDBRANCH  92  94
ENDBRANCH  90  91
ENDBRANCH  89  90
ENDBRANCH  76  87
ENDBRANCH  74  76
ENDBRANCH  65  73
ENDBRANCH  63  65
ENDBRANCH  61  62
BRANCH  61 104
ATOM    104  CB  ASN     7     -15.259 -13.810   4.048  1.00  0.00     0.126 C 
BRANCH 104 105
ATOM    105  CG  ASN     7     -16.688 -14.005   3.508  1.00  0.00     0.276 C 
ATOM    106  ND2 ASN     7     -17.004 -15.225   3.140  1.00  0.00    -0.107 N 
ATOM    107  OD1 ASN     7     -17.474 -13.100   3.258  1.00  0.00    -0.269 OA
ENDBRANCH 104 105
ENDBRANCH  61 104
ENDBRANCH  59  61
ENDBRANCH   1  58
TORSDOF 42
ENDMDL
MODEL 7
REMARK VINA RESULT:      -5.7      4.578     18.022
REMARK WARNING: 32 MAX_TORS EXCEEDED!!!
REMARK  42 active torsions:
REMARK  status: ('A' for Active; 'I' for Inactive)
REMARK    1  A    between atoms: CA_2  and  CB_3 
REMARK    2  A    between atoms: CA_2  and  C_11 
REMARK    3  A    between atoms: CB_3  and  CG_4 
REMARK       I    between atoms: C_11  and  N_13 
REMARK    4  A    between atoms: N_13  and  CA_14 
REMARK    5  A    between atoms: CA_14  and  CB_15 
REMARK    6  A    between atoms: CA_14  and  C_19 
REMARK    7  A    between atoms: CB_15  and  CG_16 
REMARK       I    between atoms: C_19  and  N_21 
REMARK    8  A    between atoms: CA_22  and  C_26 
REMARK       I    between atoms: C_26  and  N_28 
REMARK    9  A    between atoms: N_28  and  CA_29 
REMARK   10  A    between atoms: CA_29  and  C_35 
REMARK   11  A    between atoms: CA_29  and  CB_30 
REMARK   12  A    between atoms: CB_30  and  CG_31 
REMARK   13  A    between atoms: CG_31  and  CD_32 
REMARK       I    between atoms: C_35  and  N_37 
REMARK   14  A    between atoms: N_37  and  CA_38 
REMARK   15  A    between atoms: CA_38  and  CB_39 
REMARK   16  A    between atoms: CA_38  and  C_47 
REMARK   17  A    between atoms: CB_39  and  CG_40 
REMARK       I    between atoms: C_47  and  N_49 
REMARK   18  A    between atoms: N_49  and  CA_50 
REMARK   19  A    between atoms: CA_50  and  CB_51 
REMARK   20  A    between atoms: CA_50  and  C_58 
REMARK   21  A    between atoms: CB_51  and  CG_52 
REMARK   22  A    between atoms: CG_52  and  CD_53 
REMARK   23  A    between atoms: CD_53  and  NE_54 
REMARK       I    between atoms: C_58  and  N_60 
REMARK   24  A    between atoms: N_60  and  CA_61 
REMARK   25  A    between atoms: CA_61  and  C_66 
REMARK   26  A    between atoms: CA_61  and  CB_62 
REMARK   27  A    between atoms: CB_62  and  CG_63 
REMARK       I    between atoms: C_66  and  N_68 
REMARK   28  A    between atoms: N_68  and  CA_69 
REMARK   29  A    between atoms: CA_69  and  CB_70 
REMARK   30  A    between atoms: CA_69  and  C_77 
REMARK   31  A    between atoms: CB_70  and  CG_71 
REMARK       I    between atoms: C_77  and  N_79 
REMARK   32  A    between atoms: N_79  and  CA_80 
REMARK   33  A    between atoms: CA_80  and  CB_81 
REMARK   34  A    between atoms: CA_80  and  C_91 
REMARK   35  A    between atoms: CB_81  and  CG_82 
REMARK       I    between atoms: C_91  and  N_93 
REMARK   36  A    between atoms: N_93  and  CA_94 
REMARK   37  A    between atoms: CA_94  and  C_95 
REMARK       I    between atoms: C_95  and  N_97 
REMARK   38  A    between atoms: N_97  and  CA_98 
REMARK   39  A    between atoms: CA_98  and  C_101 
REMARK   40  A    between atoms: CA_98  and  CB_99 
REMARK       I    between atoms: C_101  and  N_103 
REMARK   41  A    between atoms: N_103  and  CA_104 
REMARK   42  A    between atoms: CA_104  and  C_105 
ROOT
ATOM      1  CA  ARG     6     -12.714 -14.673   4.022  1.00  0.00     0.186 C 
ENDROOT
BRANCH   1   2
ATOM      2  N   ARG     6     -11.693 -15.367   4.841  1.00  0.00    -0.229 NA
ATOM      3  C   TYR     5     -10.496 -15.715   4.352  1.00  0.00     0.275 C 
ATOM      4  O   TYR     5     -10.155 -15.456   3.198  1.00  0.00    -0.268 OA
BRANCH   3   5
ATOM      5  CA  TYR     5      -9.502 -16.363   5.330  1.00  0.00     0.191 C 
BRANCH   5   6
ATOM      6  N   TYR     5      -9.954 -17.679   5.850  1.00  0.00    -0.228 NA
ATOM      7  C   GLU     4     -10.358 -18.683   5.055  1.00  0.00     0.274 C 
ATOM      8  O   GLU     4     -10.253 -18.643   3.836  1.00  0.00    -0.268 OA
BRANCH   7   9
ATOM      9  CA  GLU     4     -10.657 -20.024   5.757  1.00  0.00     0.187 C 
BRANCH   9  10
ATOM     10  CB  GLU     4      -9.383 -20.554   6.434  1.00  0.00     0.045 C 
BRANCH  10  11
ATOM     11  CG  GLU     4      -8.121 -20.634   5.548  1.00  0.00     0.100 C 
BRANCH  11  12
ATOM     12  CD  GLU     4      -7.253 -21.867   5.798  1.00  0.00     0.185 C 
ATOM     13  OE1 GLU     4      -7.758 -22.801   6.474  1.00  0.00    -0.647 OA
ATOM     14  OE2 GLU     4      -6.018 -21.702   5.750  1.00  0.00    -0.647 OA
ENDBRANCH  11  12
ENDBRANCH  10  11
ENDBRANCH   9  10
BRANCH   9  15
ATOM     15  N   GLU     4     -11.169 -21.060   4.839  1.00  0.00    -0.229 NA
ATOM     16  C   PRO     3     -11.423 -22.336   5.104  1.00  0.00     0.272 C 
ATOM     17  O   PRO     3     -11.624 -22.764   6.241  1.00  0.00    -0.269 OA
BRANCH  16  18
ATOM     18  CA  PRO     3     -11.948 -23.155   3.923  1.00  0.00     0.165 C 
ATOM     19  N   PRO     3     -11.070 -24.266   3.498  1.00  0.00    -0.312 N 
ATOM     20  CD  PRO     3     -11.895 -25.455   3.163  1.00  0.00     0.105 C 
ATOM     21  C   ASP     2      -9.745 -24.143   3.300  1.00  0.00     0.257 C 
ATOM     22  CG  PRO     3     -13.341 -24.936   3.199  1.00  0.00     0.027 C 
ATOM     23  CB  PRO     3     -13.296 -23.807   4.225  1.00  0.00     0.034 C 
ATOM     24  O   ASP     2      -9.219 -23.020   3.261  1.00  0.00    -0.270 OA
BRANCH  21  25
ATOM     25  CA  ASP     2      -8.939 -25.351   2.772  1.00  0.00     0.195 C 
BRANCH  25  26
ATOM     26  CB  ASP     2      -8.412 -26.347   3.837  1.00  0.00     0.132 C 
BRANCH  26  27
ATOM     27  CG  ASP     2      -8.843 -27.784   3.489  1.00  0.00     0.188 C 
ATOM     28  OD2 ASP     2      -9.538 -27.904   2.449  1.00  0.00    -0.647 OA
ATOM     29  OD1 ASP     2      -8.996 -28.576   4.453  1.00  0.00    -0.647 OA
ENDBRANCH  26  27
ENDBRANCH  25  26
BRANCH  25  30
ATOM     30  N   ASP     2      -7.704 -24.936   2.086  1.00  0.00    -0.228 NA
ATOM     31  C   TYR     1      -6.583 -24.553   2.651  1.00  0.00     0.289 C 
ATOM     32  O   TYR     1      -6.284 -24.590   3.849  1.00  0.00    -0.268 OA
BRANCH  31  33
ATOM     33  CA  TYR     1      -5.594 -23.989   1.636  1.00  0.00     0.385 C 
ATOM     34  N   TYR     1      -5.744 -24.755   0.387  1.00  0.00     0.626 N 
BRANCH  33  35
ATOM     35  CB  TYR     1      -5.921 -22.509   1.456  1.00  0.00     0.075 C 
BRANCH  35  36
ATOM     36  CG  TYR     1      -4.963 -21.584   2.223  1.00  0.00    -0.019 A 
ATOM     37  CD2 TYR     1      -5.331 -20.296   2.578  1.00  0.00    -0.002 A 
ATOM     38  CE2 TYR     1      -4.503 -19.531   3.385  1.00  0.00     0.027 A 
ATOM     39  CZ  TYR     1      -3.296 -20.072   3.827  1.00  0.00     0.131 A 
ATOM     40  CE1 TYR     1      -2.915 -21.342   3.434  1.00  0.00     0.027 A 
ATOM     41  OH  TYR     1      -2.564 -19.427   4.758  1.00  0.00    -0.190 OA
ATOM     42  CD1 TYR     1      -3.744 -22.107   2.627  1.00  0.00    -0.002 A 
ENDBRANCH  35  36
ENDBRANCH  33  35
ENDBRANCH  31  33
ENDBRANCH  25  30
ENDBRANCH  21  25
ENDBRANCH  16  18
ENDBRANCH   9  15
ENDBRANCH   7   9
ENDBRANCH   5   6
BRANCH   5  43
ATOM     43  CB  TYR     5      -8.110 -16.499   4.688  1.00  0.00     0.060 C 
BRANCH  43  44
ATOM     44  CG  TYR     5      -6.988 -16.564   5.737  1.00  0.00    -0.020 A 
ATOM     45  CD2 TYR     5      -6.220 -17.712   5.881  1.00  0.00    -0.002 A 
ATOM     46  CE2 TYR     5      -5.202 -17.759   6.828  1.00  0.00     0.027 A 
ATOM     47  CZ  TYR     5      -4.950 -16.657   7.631  1.00  0.00     0.131 A 
ATOM     48  CE1 TYR     5      -5.702 -15.497   7.481  1.00  0.00     0.027 A 
ATOM     49  OH  TYR     5      -4.060 -16.741   8.643  1.00  0.00    -0.190 OA
ATOM     50  CD1 TYR     5      -6.729 -15.456   6.537  1.00  0.00    -0.002 A 
ENDBRANCH  43  44
ENDBRANCH   5  43
ENDBRANCH   3   5
ENDBRANCH   1   2
BRANCH   1  51
ATOM     51  CB  ARG     6     -14.061 -15.390   4.020  1.00  0.00     0.036 C 
BRANCH  51  52
ATOM     52  CG  ARG     6     -13.947 -16.913   4.117  1.00  0.00     0.029 C 
BRANCH  52  53
ATOM     53  CD  ARG     6     -14.487 -17.568   2.849  1.00  0.00     0.145 C 
BRANCH  53  54
ATOM     54  NE  ARG     6     -13.432 -18.327   2.156  1.00  0.00    -0.083 NA
ATOM     55  CZ  ARG     6     -13.284 -19.665   2.186  1.00  0.00     0.782 C 
ATOM     56  NH2 ARG     6     -12.241 -20.245   1.589  1.00  0.00     0.063 N 
ATOM     57  NH1 ARG     6     -14.128 -20.418   2.883  1.00  0.00     0.063 N 
ENDBRANCH  53  54
ENDBRANCH  52  53
ENDBRANCH  51  52
ENDBRANCH   1  51
BRANCH   1  58
ATOM     58  C   ARG     6     -12.980 -13.241   4.504  1.00  0.00     0.274 C 
ATOM     59  N   ASN     7     -11.951 -12.626   5.080  1.00  0.00    -0.228 NA
ATOM     60  O   ARG     6     -14.098 -12.750   4.342  1.00  0.00    -0.268 OA
BRANCH  59  61
ATOM     61  CA  ASN     7     -11.987 -11.215   5.518  1.00  0.00     0.196 C 
BRANCH  61  62
ATOM     62  C   ASN     7     -10.873 -10.386   4.849  1.00  0.00     0.275 C 
ATOM     63  N   PHE     8     -10.160  -9.574   5.644  1.00  0.00    -0.228 NA
ATOM     64  O   ASN     7     -10.455 -10.782   3.778  1.00  0.00    -0.268 OA
BRANCH  63  65
ATOM     65  CA  PHE     8      -8.996  -8.765   5.206  1.00  0.00     0.191 C 
BRANCH  65  66
ATOM     66  CB  PHE     8      -7.820  -9.716   4.945  1.00  0.00     0.060 C 
BRANCH  66  67
ATOM     67  CG  PHE     8      -7.059 -10.150   6.211  1.00  0.00    -0.020 A 
ATOM     68  CD1 PHE     8      -6.741  -9.211   7.184  1.00  0.00    -0.004 A 
ATOM     69  CE1 PHE     8      -5.964  -9.584   8.280  1.00  0.00    -0.000 A 
ATOM     70  CZ  PHE     8      -5.527 -10.893   8.401  1.00  0.00    -0.000 A 
ATOM     71  CE2 PHE     8      -5.856 -11.838   7.435  1.00  0.00    -0.000 A 
ATOM     72  CD2 PHE     8      -6.633 -11.466   6.338  1.00  0.00    -0.004 A 
ENDBRANCH  66  67
ENDBRANCH  65  66
BRANCH  65  73
ATOM     73  C   PHE     8      -9.263  -7.841   3.996  1.00  0.00     0.275 C 
ATOM     74  N   TRP     9     -10.361  -7.086   4.056  1.00  0.00    -0.228 NA
ATOM     75  O   PHE     8      -8.641  -7.984   2.941  1.00  0.00    -0.268 OA
BRANCH  74  76
ATOM     76  CA  TRP     9     -10.674  -6.067   3.025  1.00  0.00     0.191 C 
BRANCH  76  77
ATOM     77  CB  TRP     9     -12.075  -6.349   2.457  1.00  0.00     0.062 C 
BRANCH  77  78
ATOM     78  CG  TRP     9     -12.838  -7.417   3.240  1.00  0.00     0.001 A 
ATOM     79  CD1 TRP     9     -13.228  -8.598   2.771  1.00  0.00     0.095 A 
ATOM     80  NE1 TRP     9     -14.107  -9.142   3.604  1.00  0.00    -0.244 NA
ATOM     81  CE2 TRP     9     -14.292  -8.338   4.640  1.00  0.00     0.081 A 
ATOM     82  CD2 TRP     9     -13.508  -7.213   4.441  1.00  0.00     0.015 A 
ATOM     83  CZ2 TRP     9     -15.156  -8.388   5.733  1.00  0.00     0.019 A 
ATOM     84  CE3 TRP     9     -13.585  -6.132   5.307  1.00  0.00     0.001 A 
ATOM     85  CZ3 TRP     9     -14.456  -6.174   6.391  1.00  0.00     0.000 A 
ATOM     86  CH2 TRP     9     -15.226  -7.314   6.609  1.00  0.00     0.002 A 
ENDBRANCH  77  78
ENDBRANCH  76  77
BRANCH  76  87
ATOM     87  C   TRP     9     -10.538  -4.604   3.507  1.00  0.00     0.275 C 
ATOM     88  O   TRP     9     -10.084  -4.347   4.617  1.00  0.00    -0.268 OA
ATOM     89  N   GLY    10     -10.844  -3.661   2.617  1.00  0.00    -0.226 NA
BRANCH  89  90
ATOM     90  CA  GLY    10     -10.737  -2.199   2.875  1.00  0.00     0.218 C 
BRANCH  90  91
ATOM     91  C   GLY    10      -9.470  -1.504   2.351  1.00  0.00     0.277 C 
ATOM     92  N   CYS    11      -9.128  -0.392   2.999  1.00  0.00    -0.228 NA
ATOM     93  O   GLY    10      -8.942  -1.875   1.308  1.00  0.00    -0.268 OA
BRANCH  92  94
ATOM     94  CA  CYS    11      -7.951   0.462   2.725  1.00  0.00     0.198 C 
BRANCH  94  95
ATOM     95  C   CYS    11      -6.780  -0.048   3.588  1.00  0.00     0.275 C 
ATOM     96  O   CYS    11      -5.852  -0.638   3.045  1.00  0.00    -0.268 OA
ATOM     97  N   GLY    12      -6.953   0.015   4.900  1.00  0.00    -0.225 NA
BRANCH  97  98
ATOM     98  CA  GLY    12      -5.942  -0.443   5.865  1.00  0.00     0.226 C 
BRANCH  98  99
ATOM     99  C   GLY    12      -6.509  -0.231   7.288  1.00  0.00     0.211 C 
ATOM    100  O1  GLY    12      -6.532  -1.237   8.042  1.00  0.00    -0.646 OA
ATOM    101  O2  GLY    12      -6.869   0.918   7.604  1.00  0.00    -0.646 OA
ENDBRANCH  98  99
ENDBRANCH  97  98
ENDBRANCH  94  95
BRANCH  94 102
ATOM    102  CB  CYS    11      -8.216   1.891   3.194  1.00  0.00     0.103 C 
ATOM    103  SG  CYS    11      -9.946   2.482   3.044  1.00  0.00    -0.080 SA
ENDBRANCH  94 102
ENDBRANCH  92  94
ENDBRANCH  90  91
ENDBRANCH  89  90
ENDBRANCH  76  87
ENDBRANCH  74  76
ENDBRANCH  65  73
ENDBRANCH  63  65
ENDBRANCH  61  62
BRANCH  61 104
ATOM    104  CB  ASN     7     -11.907 -11.104   7.046  1.00  0.00     0.126 C 
BRANCH 104 105
ATOM    105  CG  ASN     7     -13.240 -10.769   7.740  1.00  0.00     0.276 C 
ATOM    106  ND2 ASN     7     -13.187  -9.845   8.672  1.00  0.00    -0.107 N 
ATOM    107  OD1 ASN     7     -14.283 -11.395   7.600  1.00  0.00    -0.269 OA
ENDBRANCH 104 105
ENDBRANCH  61 104
ENDBRANCH  59  61
ENDBRANCH   1  58
TORSDOF 42
ENDMDL
MODEL 8
REMARK VINA RESULT:      -5.6      7.768     14.290
REMARK WARNING: 32 MAX_TORS EXCEEDED!!!
REMARK  42 active torsions:
REMARK  status: ('A' for Active; 'I' for Inactive)
REMARK    1  A    between atoms: CA_2  and  CB_3 
REMARK    2  A    between atoms: CA_2  and  C_11 
REMARK    3  A    between atoms: CB_3  and  CG_4 
REMARK       I    between atoms: C_11  and  N_13 
REMARK    4  A    between atoms: N_13  and  CA_14 
REMARK    5  A    between atoms: CA_14  and  CB_15 
REMARK    6  A    between atoms: CA_14  and  C_19 
REMARK    7  A    between atoms: CB_15  and  CG_16 
REMARK       I    between atoms: C_19  and  N_21 
REMARK    8  A    between atoms: CA_22  and  C_26 
REMARK       I    between atoms: C_26  and  N_28 
REMARK    9  A    between atoms: N_28  and  CA_29 
REMARK   10  A    between atoms: CA_29  and  C_35 
REMARK   11  A    between atoms: CA_29  and  CB_30 
REMARK   12  A    between atoms: CB_30  and  CG_31 
REMARK   13  A    between atoms: CG_31  and  CD_32 
REMARK       I    between atoms: C_35  and  N_37 
REMARK   14  A    between atoms: N_37  and  CA_38 
REMARK   15  A    between atoms: CA_38  and  CB_39 
REMARK   16  A    between atoms: CA_38  and  C_47 
REMARK   17  A    between atoms: CB_39  and  CG_40 
REMARK       I    between atoms: C_47  and  N_49 
REMARK   18  A    between atoms: N_49  and  CA_50 
REMARK   19  A    between atoms: CA_50  and  CB_51 
REMARK   20  A    between atoms: CA_50  and  C_58 
REMARK   21  A    between atoms: CB_51  and  CG_52 
REMARK   22  A    between atoms: CG_52  and  CD_53 
REMARK   23  A    between atoms: CD_53  and  NE_54 
REMARK       I    between atoms: C_58  and  N_60 
REMARK   24  A    between atoms: N_60  and  CA_61 
REMARK   25  A    between atoms: CA_61  and  C_66 
REMARK   26  A    between atoms: CA_61  and  CB_62 
REMARK   27  A    between atoms: CB_62  and  CG_63 
REMARK       I    between atoms: C_66  and  N_68 
REMARK   28  A    between atoms: N_68  and  CA_69 
REMARK   29  A    between atoms: CA_69  and  CB_70 
REMARK   30  A    between atoms: CA_69  and  C_77 
REMARK   31  A    between atoms: CB_70  and  CG_71 
REMARK       I    between atoms: C_77  and  N_79 
REMARK   32  A    between atoms: N_79  and  CA_80 
REMARK   33  A    between atoms: CA_80  and  CB_81 
REMARK   34  A    between atoms: CA_80  and  C_91 
REMARK   35  A    between atoms: CB_81  and  CG_82 
REMARK       I    between atoms: C_91  and  N_93 
REMARK   36  A    between atoms: N_93  and  CA_94 
REMARK   37  A    between atoms: CA_94  and  C_95 
REMARK       I    between atoms: C_95  and  N_97 
REMARK   38  A    between atoms: N_97  and  CA_98 
REMARK   39  A    between atoms: CA_98  and  C_101 
REMARK   40  A    between atoms: CA_98  and  CB_99 
REMARK       I    between atoms: C_101  and  N_103 
REMARK   41  A    between atoms: N_103  and  CA_104 
REMARK   42  A    between atoms: CA_104  and  C_105 
ROOT
ATOM      1  CA  ARG     6      -9.669  -0.172   2.114  1.00  0.00     0.186 C 
ENDROOT
BRANCH   1   2
ATOM      2  N   ARG     6      -8.753   0.281   3.187  1.00  0.00    -0.229 NA
ATOM      3  C   TYR     5      -8.392   1.563   3.329  1.00  0.00     0.275 C 
ATOM      4  O   TYR     5      -8.820   2.453   2.594  1.00  0.00    -0.268 OA
BRANCH   3   5
ATOM      5  CA  TYR     5      -7.495   1.909   4.529  1.00  0.00     0.191 C 
BRANCH   5   6
ATOM      6  N   TYR     5      -8.164   1.719   5.842  1.00  0.00    -0.228 NA
ATOM      7  C   GLU     4      -8.119   2.631   6.828  1.00  0.00     0.274 C 
ATOM      8  O   GLU     4      -7.643   3.748   6.672  1.00  0.00    -0.268 OA
BRANCH   7   9
ATOM      9  CA  GLU     4      -8.985   2.331   8.068  1.00  0.00     0.187 C 
BRANCH   9  10
ATOM     10  CB  GLU     4      -8.784   0.871   8.504  1.00  0.00     0.045 C 
BRANCH  10  11
ATOM     11  CG  GLU     4     -10.056  -0.002   8.577  1.00  0.00     0.100 C 
BRANCH  11  12
ATOM     12  CD  GLU     4     -10.096  -1.141   7.559  1.00  0.00     0.185 C 
ATOM     13  OE1 GLU     4     -10.239  -0.830   6.348  1.00  0.00    -0.647 OA
ATOM     14  OE2 GLU     4     -10.455  -2.259   7.983  1.00  0.00    -0.647 OA
ENDBRANCH  11  12
ENDBRANCH  10  11
ENDBRANCH   9  10
BRANCH   9  15
ATOM     15  N   GLU     4     -10.425   2.561   7.842  1.00  0.00    -0.229 NA
ATOM     16  C   PRO     3     -11.145   3.630   8.161  1.00  0.00     0.272 C 
ATOM     17  O   PRO     3     -10.653   4.742   8.359  1.00  0.00    -0.269 OA
BRANCH  16  18
ATOM     18  CA  PRO     3     -12.627   3.555   7.789  1.00  0.00     0.165 C 
ATOM     19  N   PRO     3     -12.897   3.318   6.355  1.00  0.00    -0.312 N 
ATOM     20  CD  PRO     3     -14.027   2.366   6.210  1.00  0.00     0.105 C 
ATOM     21  C   ASP     2     -12.300   3.996   5.357  1.00  0.00     0.257 C 
ATOM     22  CG  PRO     3     -14.574   2.206   7.637  1.00  0.00     0.027 C 
ATOM     23  CB  PRO     3     -13.350   2.427   8.521  1.00  0.00     0.034 C 
ATOM     24  O   ASP     2     -11.638   5.016   5.600  1.00  0.00    -0.270 OA
BRANCH  21  25
ATOM     25  CA  ASP     2     -12.723   3.724   3.895  1.00  0.00     0.195 C 
BRANCH  25  26
ATOM     26  CB  ASP     2     -11.868   4.401   2.793  1.00  0.00     0.132 C 
BRANCH  26  27
ATOM     27  CG  ASP     2     -12.132   3.742   1.427  1.00  0.00     0.188 C 
ATOM     28  OD2 ASP     2     -12.876   4.391   0.648  1.00  0.00    -0.647 OA
ATOM     29  OD1 ASP     2     -12.116   2.487   1.393  1.00  0.00    -0.647 OA
ENDBRANCH  26  27
ENDBRANCH  25  26
BRANCH  25  30
ATOM     30  N   ASP     2     -14.075   4.234   3.606  1.00  0.00    -0.228 NA
ATOM     31  C   TYR     1     -14.461   5.488   3.623  1.00  0.00     0.289 C 
ATOM     32  O   TYR     1     -13.760   6.498   3.746  1.00  0.00    -0.268 OA
BRANCH  31  33
ATOM     33  CA  TYR     1     -15.974   5.622   3.489  1.00  0.00     0.385 C 
ATOM     34  N   TYR     1     -16.397   4.818   2.330  1.00  0.00     0.626 N 
BRANCH  33  35
ATOM     35  CB  TYR     1     -16.592   5.132   4.796  1.00  0.00     0.075 C 
BRANCH  35  36
ATOM     36  CG  TYR     1     -16.342   6.087   5.974  1.00  0.00    -0.019 A 
ATOM     37  CD2 TYR     1     -15.624   5.686   7.089  1.00  0.00    -0.002 A 
ATOM     38  CE2 TYR     1     -15.296   6.604   8.075  1.00  0.00     0.027 A 
ATOM     39  CZ  TYR     1     -15.703   7.930   7.932  1.00  0.00     0.131 A 
ATOM     40  CE1 TYR     1     -16.455   8.314   6.837  1.00  0.00     0.027 A 
ATOM     41  OH  TYR     1     -15.241   8.875   8.775  1.00  0.00    -0.190 OA
ATOM     42  CD1 TYR     1     -16.782   7.396   5.851  1.00  0.00    -0.002 A 
ENDBRANCH  35  36
ENDBRANCH  33  35
ENDBRANCH  31  33
ENDBRANCH  25  30
ENDBRANCH  21  25
ENDBRANCH  16  18
ENDBRANCH   9  15
ENDBRANCH   7   9
ENDBRANCH   5   6
BRANCH   5  43
ATOM     43  CB  TYR     5      -6.183   1.108   4.484  1.00  0.00     0.060 C 
BRANCH  43  44
ATOM     44  CG  TYR     5      -5.015   1.865   5.138  1.00  0.00    -0.020 A 
ATOM     45  CD2 TYR     5      -4.256   1.268   6.137  1.00  0.00    -0.002 A 
ATOM     46  CE2 TYR     5      -3.197   1.957   6.717  1.00  0.00     0.027 A 
ATOM     47  CZ  TYR     5      -2.895   3.244   6.300  1.00  0.00     0.131 A 
ATOM     48  CE1 TYR     5      -3.638   3.843   5.288  1.00  0.00     0.027 A 
ATOM     49  OH  TYR     5      -1.961   3.970   6.952  1.00  0.00    -0.190 OA
ATOM     50  CD1 TYR     5      -4.706   3.152   4.714  1.00  0.00    -0.002 A 
ENDBRANCH  43  44
ENDBRANCH   5  43
ENDBRANCH   3   5
ENDBRANCH   1   2
BRANCH   1  51
ATOM     51  CB  ARG     6      -9.122  -1.359   1.328  1.00  0.00     0.036 C 
BRANCH  51  52
ATOM     52  CG  ARG     6      -7.766  -1.858   1.834  1.00  0.00     0.029 C 
BRANCH  52  53
ATOM     53  CD  ARG     6      -7.721  -3.384   1.818  1.00  0.00     0.145 C 
BRANCH  53  54
ATOM     54  NE  ARG     6      -9.071  -3.952   1.970  1.00  0.00    -0.083 NA
ATOM     55  CZ  ARG     6      -9.392  -5.252   1.826  1.00  0.00     0.782 C 
ATOM     56  NH2 ARG     6     -10.664  -5.649   1.904  1.00  0.00     0.063 N 
ATOM     57  NH1 ARG     6      -8.457  -6.144   1.518  1.00  0.00     0.063 N 
ENDBRANCH  53  54
ENDBRANCH  52  53
ENDBRANCH  51  52
ENDBRANCH   1  51
BRANCH   1  58
ATOM     58  C   ARG     6     -11.040  -0.597   2.653  1.00  0.00     0.274 C 
ATOM     59  N   ASN     7     -11.497  -1.766   2.212  1.00  0.00    -0.228 NA
ATOM     60  O   ARG     6     -11.633   0.143   3.439  1.00  0.00    -0.268 OA
BRANCH  59  61
ATOM     61  CA  ASN     7     -12.749  -2.385   2.692  1.00  0.00     0.196 C 
BRANCH  61  62
ATOM     62  C   ASN     7     -12.506  -3.265   3.934  1.00  0.00     0.275 C 
ATOM     63  N   PHE     8     -13.402  -4.233   4.177  1.00  0.00    -0.228 NA
ATOM     64  O   ASN     7     -11.374  -3.299   4.376  1.00  0.00    -0.268 OA
BRANCH  63  65
ATOM     65  CA  PHE     8     -13.296  -5.233   5.268  1.00  0.00     0.191 C 
BRANCH  65  66
ATOM     66  CB  PHE     8     -14.679  -5.386   5.916  1.00  0.00     0.060 C 
BRANCH  66  67
ATOM     67  CG  PHE     8     -15.844  -4.844   5.065  1.00  0.00    -0.020 A 
ATOM     68  CD1 PHE     8     -16.369  -5.617   4.039  1.00  0.00    -0.004 A 
ATOM     69  CE1 PHE     8     -17.353  -5.087   3.204  1.00  0.00    -0.000 A 
ATOM     70  CZ  PHE     8     -17.812  -3.797   3.415  1.00  0.00    -0.000 A 
ATOM     71  CE2 PHE     8     -17.296  -3.025   4.452  1.00  0.00    -0.000 A 
ATOM     72  CD2 PHE     8     -16.312  -3.556   5.286  1.00  0.00    -0.004 A 
ENDBRANCH  66  67
ENDBRANCH  65  66
BRANCH  65  73
ATOM     73  C   PHE     8     -12.708  -6.599   4.847  1.00  0.00     0.275 C 
ATOM     74  N   TRP     9     -11.434  -6.822   5.172  1.00  0.00    -0.228 NA
ATOM     75  O   PHE     8     -13.301  -7.323   4.044  1.00  0.00    -0.268 OA
BRANCH  74  76
ATOM     76  CA  TRP     9     -10.780  -8.133   4.940  1.00  0.00     0.191 C 
BRANCH  76  77
ATOM     77  CB  TRP     9      -9.299  -7.896   4.601  1.00  0.00     0.062 C 
BRANCH  77  78
ATOM     78  CG  TRP     9      -8.487  -9.187   4.517  1.00  0.00     0.001 A 
ATOM     79  CD1 TRP     9      -8.636 -10.146   3.607  1.00  0.00     0.095 A 
ATOM     80  NE1 TRP     9      -7.988 -11.237   3.996  1.00  0.00    -0.244 NA
ATOM     81  CE2 TRP     9      -7.387 -11.007   5.154  1.00  0.00     0.081 A 
ATOM     82  CD2 TRP     9      -7.691  -9.709   5.532  1.00  0.00     0.015 A 
ATOM     83  CZ2 TRP     9      -6.665 -11.823   6.024  1.00  0.00     0.019 A 
ATOM     84  CE3 TRP     9      -7.300  -9.219   6.769  1.00  0.00     0.001 A 
ATOM     85  CZ3 TRP     9      -6.591 -10.035   7.644  1.00  0.00     0.000 A 
ATOM     86  CH2 TRP     9      -6.260 -11.332   7.257  1.00  0.00     0.002 A 
ENDBRANCH  77  78
ENDBRANCH  76  77
BRANCH  76  87
ATOM     87  C   TRP     9     -10.944  -9.145   6.097  1.00  0.00     0.275 C 
ATOM     88  O   TRP     9     -10.717  -8.818   7.257  1.00  0.00    -0.268 OA
ATOM     89  N   GLY    10     -11.437 -10.339   5.768  1.00  0.00    -0.226 NA
BRANCH  89  90
ATOM     90  CA  GLY    10     -11.708 -11.431   6.743  1.00  0.00     0.218 C 
BRANCH  90  91
ATOM     91  C   GLY    10     -11.112 -12.808   6.408  1.00  0.00     0.277 C 
ATOM     92  N   CYS    11     -10.868 -13.017   5.115  1.00  0.00    -0.228 NA
ATOM     93  O   GLY    10     -11.044 -13.682   7.264  1.00  0.00    -0.268 OA
BRANCH  92  94
ATOM     94  CA  CYS    11     -10.279 -14.234   4.515  1.00  0.00     0.198 C 
BRANCH  94  95
ATOM     95  C   CYS    11     -10.293 -14.067   2.983  1.00  0.00     0.275 C 
ATOM     96  O   CYS    11      -9.661 -14.858   2.291  1.00  0.00    -0.268 OA
ATOM     97  N   GLY    12     -10.835 -12.948   2.524  1.00  0.00    -0.225 NA
BRANCH  97  98
ATOM     98  CA  GLY    12     -10.915 -12.624   1.092  1.00  0.00     0.226 C 
BRANCH  98  99
ATOM     99  C   GLY    12     -12.267 -13.152   0.558  1.00  0.00     0.211 C 
ATOM    100  O1  GLY    12     -12.256 -14.290   0.023  1.00  0.00    -0.646 OA
ATOM    101  O2  GLY    12     -13.274 -12.440   0.722  1.00  0.00    -0.646 OA
ENDBRANCH  98  99
ENDBRANCH  97  98
ENDBRANCH  94  95
BRANCH  94 102
ATOM    102  CB  CYS    11     -11.163 -15.445   4.805  1.00  0.00     0.103 C 
ATOM    103  SG  CYS    11     -12.847 -15.408   4.080  1.00  0.00    -0.080 SA
ENDBRANCH  94 102
ENDBRANCH  92  94
ENDBRANCH  90  91
ENDBRANCH  89  90
ENDBRANCH  76  87
ENDBRANCH  74  76
ENDBRANCH  65  73
ENDBRANCH  63  65
ENDBRANCH  61  62
BRANCH  61 104
ATOM    104  CB  ASN     7     -13.436  -3.188   1.580  1.00  0.00     0.126 C 
BRANCH 104 105
ATOM    105  CG  ASN     7     -14.900  -2.796   1.308  1.00  0.00     0.276 C 
ATOM    106  ND2 ASN     7     -15.546  -3.547   0.446  1.00  0.00    -0.107 N 
ATOM    107  OD1 ASN     7     -15.439  -1.772   1.707  1.00  0.00    -0.269 OA
ENDBRANCH 104 105
ENDBRANCH  61 104
ENDBRANCH  59  61
ENDBRANCH   1  58
TORSDOF 42
ENDMDL
MODEL 9
REMARK VINA RESULT:      -5.6      3.919      8.003
REMARK WARNING: 32 MAX_TORS EXCEEDED!!!
REMARK  42 active torsions:
REMARK  status: ('A' for Active; 'I' for Inactive)
REMARK    1  A    between atoms: CA_2  and  CB_3 
REMARK    2  A    between atoms: CA_2  and  C_11 
REMARK    3  A    between atoms: CB_3  and  CG_4 
REMARK       I    between atoms: C_11  and  N_13 
REMARK    4  A    between atoms: N_13  and  CA_14 
REMARK    5  A    between atoms: CA_14  and  CB_15 
REMARK    6  A    between atoms: CA_14  and  C_19 
REMARK    7  A    between atoms: CB_15  and  CG_16 
REMARK       I    between atoms: C_19  and  N_21 
REMARK    8  A    between atoms: CA_22  and  C_26 
REMARK       I    between atoms: C_26  and  N_28 
REMARK    9  A    between atoms: N_28  and  CA_29 
REMARK   10  A    between atoms: CA_29  and  C_35 
REMARK   11  A    between atoms: CA_29  and  CB_30 
REMARK   12  A    between atoms: CB_30  and  CG_31 
REMARK   13  A    between atoms: CG_31  and  CD_32 
REMARK       I    between atoms: C_35  and  N_37 
REMARK   14  A    between atoms: N_37  and  CA_38 
REMARK   15  A    between atoms: CA_38  and  CB_39 
REMARK   16  A    between atoms: CA_38  and  C_47 
REMARK   17  A    between atoms: CB_39  and  CG_40 
REMARK       I    between atoms: C_47  and  N_49 
REMARK   18  A    between atoms: N_49  and  CA_50 
REMARK   19  A    between atoms: CA_50  and  CB_51 
REMARK   20  A    between atoms: CA_50  and  C_58 
REMARK   21  A    between atoms: CB_51  and  CG_52 
REMARK   22  A    between atoms: CG_52  and  CD_53 
REMARK   23  A    between atoms: CD_53  and  NE_54 
REMARK       I    between atoms: C_58  and  N_60 
REMARK   24  A    between atoms: N_60  and  CA_61 
REMARK   25  A    between atoms: CA_61  and  C_66 
REMARK   26  A    between atoms: CA_61  and  CB_62 
REMARK   27  A    between atoms: CB_62  and  CG_63 
REMARK       I    between atoms: C_66  and  N_68 
REMARK   28  A    between atoms: N_68  and  CA_69 
REMARK   29  A    between atoms: CA_69  and  CB_70 
REMARK   30  A    between atoms: CA_69  and  C_77 
REMARK   31  A    between atoms: CB_70  and  CG_71 
REMARK       I    between atoms: C_77  and  N_79 
REMARK   32  A    between atoms: N_79  and  CA_80 
REMARK   33  A    between atoms: CA_80  and  CB_81 
REMARK   34  A    between atoms: CA_80  and  C_91 
REMARK   35  A    between atoms: CB_81  and  CG_82 
REMARK       I    between atoms: C_91  and  N_93 
REMARK   36  A    between atoms: N_93  and  CA_94 
REMARK   37  A    between atoms: CA_94  and  C_95 
REMARK       I    between atoms: C_95  and  N_97 
REMARK   38  A    between atoms: N_97  and  CA_98 
REMARK   39  A    between atoms: CA_98  and  C_101 
REMARK   40  A    between atoms: CA_98  and  CB_99 
REMARK       I    between atoms: C_101  and  N_103 
REMARK   41  A    between atoms: N_103  and  CA_104 
REMARK   42  A    between atoms: CA_104  and  C_105 
ROOT
ATOM      1  CA  ARG     6     -14.846 -11.233   7.739  1.00  0.00     0.186 C 
ENDROOT
BRANCH   1   2
ATOM      2  N   ARG     6     -14.008 -10.357   6.886  1.00  0.00    -0.229 NA
ATOM      3  C   TYR     5     -12.980  -9.652   7.373  1.00  0.00     0.275 C 
ATOM      4  O   TYR     5     -12.645  -9.707   8.556  1.00  0.00    -0.268 OA
BRANCH   3   5
ATOM      5  CA  TYR     5     -12.147  -8.842   6.366  1.00  0.00     0.191 C 
BRANCH   5   6
ATOM      6  N   TYR     5     -12.696  -7.488   6.096  1.00  0.00    -0.228 NA
ATOM      7  C   GLU     4     -12.651  -6.485   6.989  1.00  0.00     0.274 C 
ATOM      8  O   GLU     4     -12.030  -6.566   8.041  1.00  0.00    -0.268 OA
BRANCH   7   9
ATOM      9  CA  GLU     4     -13.140  -5.111   6.489  1.00  0.00     0.187 C 
BRANCH   9  10
ATOM     10  CB  GLU     4     -14.653  -5.160   6.225  1.00  0.00     0.045 C 
BRANCH  10  11
ATOM     11  CG  GLU     4     -15.094  -5.034   4.750  1.00  0.00     0.100 C 
BRANCH  11  12
ATOM     12  CD  GLU     4     -16.264  -5.938   4.363  1.00  0.00     0.185 C 
ATOM     13  OE1 GLU     4     -17.422  -5.540   4.655  1.00  0.00    -0.647 OA
ATOM     14  OE2 GLU     4     -16.015  -7.153   4.233  1.00  0.00    -0.647 OA
ENDBRANCH  11  12
ENDBRANCH  10  11
ENDBRANCH   9  10
BRANCH   9  15
ATOM     15  N   GLU     4     -12.461  -4.663   5.257  1.00  0.00    -0.229 NA
ATOM     16  C   PRO     3     -11.198  -4.283   5.110  1.00  0.00     0.272 C 
ATOM     17  O   PRO     3     -10.301  -4.595   5.894  1.00  0.00    -0.269 OA
BRANCH  16  18
ATOM     18  CA  PRO     3     -10.801  -3.872   3.690  1.00  0.00     0.165 C 
ATOM     19  N   PRO     3      -9.946  -2.669   3.607  1.00  0.00    -0.312 N 
ATOM     20  CD  PRO     3      -8.901  -2.870   2.571  1.00  0.00     0.105 C 
ATOM     21  C   ASP     2     -10.195  -1.523   4.267  1.00  0.00     0.257 C 
ATOM     22  CG  PRO     3      -9.304  -4.179   1.874  1.00  0.00     0.027 C 
ATOM     23  CB  PRO     3     -10.020  -4.967   2.968  1.00  0.00     0.034 C 
ATOM     24  O   ASP     2     -11.289  -1.345   4.822  1.00  0.00    -0.270 OA
BRANCH  21  25
ATOM     25  CA  ASP     2      -9.279  -0.299   4.038  1.00  0.00     0.195 C 
BRANCH  25  26
ATOM     26  CB  ASP     2      -8.474   0.198   5.266  1.00  0.00     0.132 C 
BRANCH  26  27
ATOM     27  CG  ASP     2      -7.004  -0.250   5.163  1.00  0.00     0.188 C 
ATOM     28  OD2 ASP     2      -6.570  -0.419   3.995  1.00  0.00    -0.647 OA
ATOM     29  OD1 ASP     2      -6.556  -0.937   6.114  1.00  0.00    -0.647 OA
ENDBRANCH  26  27
ENDBRANCH  25  26
BRANCH  25  30
ATOM     30  N   ASP     2     -10.042   0.899   3.651  1.00  0.00    -0.228 NA
ATOM     31  C   TYR     1      -9.565   1.986   3.089  1.00  0.00     0.289 C 
ATOM     32  O   TYR     1      -8.427   2.179   2.650  1.00  0.00    -0.268 OA
BRANCH  31  33
ATOM     33  CA  TYR     1     -10.604   3.102   3.032  1.00  0.00     0.385 C 
ATOM     34  N   TYR     1     -10.876   3.392   1.615  1.00  0.00     0.626 N 
BRANCH  33  35
ATOM     35  CB  TYR     1     -11.843   2.610   3.777  1.00  0.00     0.075 C 
BRANCH  35  36
ATOM     36  CG  TYR     1     -12.194   3.474   4.997  1.00  0.00    -0.019 A 
ATOM     37  CD2 TYR     1     -13.248   4.374   4.966  1.00  0.00    -0.002 A 
ATOM     38  CE2 TYR     1     -13.629   5.042   6.120  1.00  0.00     0.027 A 
ATOM     39  CZ  TYR     1     -12.935   4.802   7.305  1.00  0.00     0.131 A 
ATOM     40  CE1 TYR     1     -11.858   3.934   7.320  1.00  0.00     0.027 A 
ATOM     41  OH  TYR     1     -13.398   5.291   8.474  1.00  0.00    -0.190 OA
ATOM     42  CD1 TYR     1     -11.477   3.266   6.166  1.00  0.00    -0.002 A 
ENDBRANCH  35  36
ENDBRANCH  33  35
ENDBRANCH  31  33
ENDBRANCH  25  30
ENDBRANCH  21  25
ENDBRANCH  16  18
ENDBRANCH   9  15
ENDBRANCH   7   9
ENDBRANCH   5   6
BRANCH   5  43
ATOM     43  CB  TYR     5     -10.682  -8.735   6.825  1.00  0.00     0.060 C 
BRANCH  43  44
ATOM     44  CG  TYR     5      -9.694  -9.163   5.727  1.00  0.00    -0.020 A 
ATOM     45  CD2 TYR     5     -10.041  -9.064   4.386  1.00  0.00    -0.002 A 
ATOM     46  CE2 TYR     5      -9.138  -9.446   3.399  1.00  0.00     0.027 A 
ATOM     47  CZ  TYR     5      -7.887  -9.928   3.753  1.00  0.00     0.131 A 
ATOM     48  CE1 TYR     5      -7.525 -10.013   5.093  1.00  0.00     0.027 A 
ATOM     49  OH  TYR     5      -7.059 -10.431   2.812  1.00  0.00    -0.190 OA
ATOM     50  CD1 TYR     5      -8.436  -9.637   6.080  1.00  0.00    -0.002 A 
ENDBRANCH  43  44
ENDBRANCH   5  43
ENDBRANCH   3   5
ENDBRANCH   1   2
BRANCH   1  51
ATOM     51  CB  ARG     6     -16.176 -10.591   8.123  1.00  0.00     0.036 C 
BRANCH  51  52
ATOM     52  CG  ARG     6     -16.609  -9.465   7.181  1.00  0.00     0.029 C 
BRANCH  52  53
ATOM     53  CD  ARG     6     -18.130  -9.349   7.156  1.00  0.00     0.145 C 
BRANCH  53  54
ATOM     54  NE  ARG     6     -18.575  -8.474   6.059  1.00  0.00    -0.083 NA
ATOM     55  CZ  ARG     6     -19.686  -8.653   5.319  1.00  0.00     0.782 C 
ATOM     56  NH2 ARG     6     -19.952  -7.845   4.290  1.00  0.00     0.063 N 
ATOM     57  NH1 ARG     6     -20.486  -9.688   5.549  1.00  0.00     0.063 N 
ENDBRANCH  53  54
ENDBRANCH  52  53
ENDBRANCH  51  52
ENDBRANCH   1  51
BRANCH   1  58
ATOM     58  C   ARG     6     -15.182 -12.566   7.060  1.00  0.00     0.274 C 
ATOM     59  N   ASN     7     -14.140 -13.315   6.712  1.00  0.00    -0.228 NA
ATOM     60  O   ARG     6     -16.362 -12.865   6.874  1.00  0.00    -0.268 OA
BRANCH  59  61
ATOM     61  CA  ASN     7     -14.266 -14.671   6.137  1.00  0.00     0.196 C 
BRANCH  61  62
ATOM     62  C   ASN     7     -13.096 -15.579   6.563  1.00  0.00     0.275 C 
ATOM     63  N   PHE     8     -12.547 -16.349   5.612  1.00  0.00    -0.228 NA
ATOM     64  O   ASN     7     -12.502 -15.276   7.580  1.00  0.00    -0.268 OA
BRANCH  63  65
ATOM     65  CA  PHE     8     -11.363 -17.221   5.805  1.00  0.00     0.191 C 
BRANCH  65  66
ATOM     66  CB  PHE     8     -11.658 -18.582   5.160  1.00  0.00     0.060 C 
BRANCH  66  67
ATOM     67  CG  PHE     8     -12.884 -18.592   4.227  1.00  0.00    -0.020 A 
ATOM     68  CD1 PHE     8     -14.101 -19.072   4.689  1.00  0.00    -0.004 A 
ATOM     69  CE1 PHE     8     -15.183 -19.176   3.814  1.00  0.00    -0.000 A 
ATOM     70  CZ  PHE     8     -15.040 -18.784   2.493  1.00  0.00    -0.000 A 
ATOM     71  CE2 PHE     8     -13.825 -18.289   2.032  1.00  0.00    -0.000 A 
ATOM     72  CD2 PHE     8     -12.743 -18.186   2.906  1.00  0.00    -0.004 A 
ENDBRANCH  66  67
ENDBRANCH  65  66
BRANCH  65  73
ATOM     73  C   PHE     8     -10.027 -16.628   5.302  1.00  0.00     0.275 C 
ATOM     74  N   TRP     9      -9.300 -15.958   6.198  1.00  0.00    -0.228 NA
ATOM     75  O   PHE     8      -9.777 -16.561   4.096  1.00  0.00    -0.268 OA
BRANCH  74  76
ATOM     76  CA  TRP     9      -7.944 -15.444   5.886  1.00  0.00     0.191 C 
BRANCH  76  77
ATOM     77  CB  TRP     9      -7.885 -13.950   6.244  1.00  0.00     0.062 C 
BRANCH  77  78
ATOM     78  CG  TRP     9      -9.144 -13.184   5.838  1.00  0.00     0.001 A 
ATOM     79  CD1 TRP     9     -10.140 -12.834   6.647  1.00  0.00     0.095 A 
ATOM     80  NE1 TRP     9     -11.188 -12.453   5.928  1.00  0.00    -0.244 NA
ATOM     81  CE2 TRP     9     -10.892 -12.528   4.639  1.00  0.00     0.081 A 
ATOM     82  CD2 TRP     9      -9.595 -13.005   4.534  1.00  0.00     0.015 A 
ATOM     83  CZ2 TRP     9     -11.646 -12.333   3.482  1.00  0.00     0.019 A 
ATOM     84  CE3 TRP     9      -9.046 -13.305   3.296  1.00  0.00     0.001 A 
ATOM     85  CZ3 TRP     9      -9.801 -13.124   2.142  1.00  0.00     0.000 A 
ATOM     86  CH2 TRP     9     -11.096 -12.619   2.241  1.00  0.00     0.002 A 
ENDBRANCH  77  78
ENDBRANCH  76  77
BRANCH  76  87
ATOM     87  C   TRP     9      -6.791 -16.234   6.547  1.00  0.00     0.275 C 
ATOM     88  O   TRP     9      -6.845 -17.455   6.654  1.00  0.00    -0.268 OA
ATOM     89  N   GLY    10      -5.715 -15.527   6.891  1.00  0.00    -0.226 NA
BRANCH  89  90
ATOM     90  CA  GLY    10      -4.488 -16.111   7.499  1.00  0.00     0.218 C 
BRANCH  90  91
ATOM     91  C   GLY    10      -3.379 -16.535   6.522  1.00  0.00     0.277 C 
ATOM     92  N   CYS    11      -3.133 -17.844   6.484  1.00  0.00    -0.228 NA
ATOM     93  O   GLY    10      -2.678 -15.694   5.971  1.00  0.00    -0.268 OA
BRANCH  92  94
ATOM     94  CA  CYS    11      -2.142 -18.530   5.625  1.00  0.00     0.198 C 
BRANCH  94  95
ATOM     95  C   CYS    11      -2.907 -19.444   4.647  1.00  0.00     0.275 C 
ATOM     96  O   CYS    11      -3.573 -18.934   3.753  1.00  0.00    -0.268 OA
ATOM     97  N   GLY    12      -2.950 -20.729   4.966  1.00  0.00    -0.225 NA
BRANCH  97  98
ATOM     98  CA  GLY    12      -3.651 -21.734   4.151  1.00  0.00     0.226 C 
BRANCH  98  99
ATOM     99  C   GLY    12      -2.674 -22.228   3.058  1.00  0.00     0.211 C 
ATOM    100  O1  GLY    12      -1.449 -22.041   3.270  1.00  0.00    -0.646 OA
ATOM    101  O2  GLY    12      -3.157 -22.806   2.067  1.00  0.00    -0.646 OA
ENDBRANCH  98  99
ENDBRANCH  97  98
ENDBRANCH  94  95
BRANCH  94 102
ATOM    102  CB  CYS    11      -1.273 -19.462   6.466  1.00  0.00     0.103 C 
ATOM    103  SG  CYS    11      -1.465 -19.323   8.285  1.00  0.00    -0.080 SA
ENDBRANCH  94 102
ENDBRANCH  92  94
ENDBRANCH  90  91
ENDBRANCH  89  90
ENDBRANCH  76  87
ENDBRANCH  74  76
ENDBRANCH  65  73
ENDBRANCH  63  65
ENDBRANCH  61  62
BRANCH  61 104
ATOM    104  CB  ASN     7     -14.388 -14.619   4.609  1.00  0.00     0.126 C 
BRANCH 104 105
ATOM    105  CG  ASN     7     -15.596 -15.377   4.030  1.00  0.00     0.276 C 
ATOM    106  ND2 ASN     7     -15.792 -15.248   2.738  1.00  0.00    -0.107 N 
ATOM    107  OD1 ASN     7     -16.453 -15.947   4.694  1.00  0.00    -0.269 OA
ENDBRANCH 104 105
ENDBRANCH  61 104
ENDBRANCH  59  61
ENDBRANCH   1  58
TORSDOF 42
ENDMDL
