MODEL 1
REMARK VINA RESULT:      -3.4      0.000      0.000
REMARK WARNING: 32 MAX_TORS EXCEEDED!!!
REMARK  33 active torsions:
REMARK  status: ('A' for Active; 'I' for Inactive)
REMARK    1  A    between atoms: CA_2  and  C_8 
REMARK    2  A    between atoms: CA_2  and  CB_3 
REMARK    3  A    between atoms: CB_3  and  CG_4 
REMARK    4  A    between atoms: CG_4  and  CD_5 
REMARK       I    between atoms: C_8  and  N_10 
REMARK    5  A    between atoms: N_10  and  CA_11 
REMARK    6  A    between atoms: CA_11  and  C_12 
REMARK       I    between atoms: C_12  and  N_14 
REMARK    7  A    between atoms: N_14  and  CA_15 
REMARK    8  A    between atoms: CA_15  and  C_20 
REMARK    9  A    between atoms: CA_15  and  CB_16 
REMARK   10  A    between atoms: CB_16  and  CG_17 
REMARK       I    between atoms: C_20  and  N_22 
REMARK   11  A    between atoms: N_22  and  CA_23 
REMARK   12  A    between atoms: CA_23  and  CB_24 
REMARK   13  A    between atoms: CA_23  and  C_28 
REMARK   14  A    between atoms: CB_24  and  CG_25 
REMARK       I    between atoms: C_28  and  N_30 
REMARK   15  A    between atoms: N_30  and  CA_31 
REMARK   16  A    between atoms: CA_31  and  CB_32 
REMARK   17  A    between atoms: CA_31  and  C_39 
REMARK   18  A    between atoms: CB_32  and  CG_33 
REMARK   19  A    between atoms: CG_33  and  CD_34 
REMARK   20  A    between atoms: CD_34  and  NE_35 
REMARK       I    between atoms: C_39  and  N_41 
REMARK   21  A    between atoms: CA_42  and  C_46 
REMARK       I    between atoms: C_46  and  N_48 
REMARK   22  A    between atoms: N_48  and  CA_49 
REMARK   23  A    between atoms: CA_49  and  C_52 
REMARK   24  A    between atoms: CA_49  and  CB_50 
REMARK       I    between atoms: C_52  and  N_54 
REMARK   25  A    between atoms: N_54  and  CA_55 
REMARK   26  A    between atoms: CA_55  and  C_56 
REMARK       I    between atoms: C_56  and  N_58 
REMARK   27  A    between atoms: N_58  and  CA_59 
REMARK   28  A    between atoms: CA_59  and  C_60 
REMARK       I    between atoms: C_60  and  N_62 
REMARK   29  A    between atoms: N_62  and  CA_63 
REMARK   30  A    between atoms: CA_63  and  CB_64 
REMARK   31  A    between atoms: CA_63  and  C_66 
REMARK       I    between atoms: C_66  and  N_68 
REMARK   32  A    between atoms: N_68  and  CA_69 
REMARK   33  A    between atoms: CA_69  and  C_70 
ROOT
ATOM      1  CA  ARG     5      14.102   2.177   4.798  1.00  0.00     0.185 C 
ENDROOT
BRANCH   1   2
ATOM      2  N   ARG     5      15.269   1.288   4.948  1.00  0.00    -0.229 NA
ATOM      3  C   ASN     4      16.252   1.150   4.073  1.00  0.00     0.275 C 
ATOM      4  O   ASN     4      16.203   1.548   2.913  1.00  0.00    -0.268 OA
BRANCH   3   5
ATOM      5  CA  ASN     4      17.329   0.149   4.539  1.00  0.00     0.196 C 
BRANCH   5   6
ATOM      6  N   ASN     4      17.006  -1.218   4.079  1.00  0.00    -0.228 NA
ATOM      7  C   LEU     3      16.428  -2.131   4.856  1.00  0.00     0.274 C 
ATOM      8  O   LEU     3      16.091  -1.950   6.030  1.00  0.00    -0.268 OA
BRANCH   7   9
ATOM      9  CA  LEU     3      16.131  -3.464   4.171  1.00  0.00     0.186 C 
BRANCH   9  10
ATOM     10  N   LEU     3      15.836  -4.492   5.194  1.00  0.00    -0.229 NA
ATOM     11  C   GLY     2      16.755  -5.350   5.646  1.00  0.00     0.277 C 
ATOM     12  O   GLY     2      17.943  -5.263   5.374  1.00  0.00    -0.268 OA
BRANCH  11  13
ATOM     13  CA  GLY     2      16.265  -6.381   6.685  1.00  0.00     0.218 C 
BRANCH  13  14
ATOM     14  N   GLY     2      16.803  -7.760   6.608  1.00  0.00    -0.226 NA
ATOM     15  C   GLU     1      16.153  -8.740   5.969  1.00  0.00     0.289 C 
ATOM     16  O   GLU     1      15.174  -8.503   5.282  1.00  0.00    -0.268 OA
BRANCH  15  17
ATOM     17  CA  GLU     1      16.719 -10.183   6.044  1.00  0.00     0.381 C 
ATOM     18  N   GLU     1      18.025 -10.272   6.720  1.00  0.00     0.626 N 
BRANCH  17  19
ATOM     19  CB  GLU     1      15.672 -11.086   6.728  1.00  0.00     0.060 C 
BRANCH  19  20
ATOM     20  CG  GLU     1      14.853 -10.533   7.904  1.00  0.00     0.100 C 
BRANCH  20  21
ATOM     21  CD  GLU     1      13.341 -10.542   7.633  1.00  0.00     0.185 C 
ATOM     22  OE1 GLU     1      12.758  -9.451   7.498  1.00  0.00    -0.647 OA
ATOM     23  OE2 GLU     1      12.753 -11.637   7.591  1.00  0.00    -0.647 OA
ENDBRANCH  20  21
ENDBRANCH  19  20
ENDBRANCH  17  19
ENDBRANCH  15  17
ENDBRANCH  13  14
ENDBRANCH  11  13
ENDBRANCH   9  10
BRANCH   9  24
ATOM     24  CB  LEU     3      14.931  -3.280   3.233  1.00  0.00     0.034 C 
BRANCH  24  25
ATOM     25  CG  LEU     3      13.581  -3.658   3.869  1.00  0.00     0.002 C 
ATOM     26  CD1 LEU     3      12.754  -2.394   4.097  1.00  0.00     0.000 C 
ATOM     27  CD2 LEU     3      12.806  -4.639   2.984  1.00  0.00     0.000 C 
ENDBRANCH  24  25
ENDBRANCH   9  24
ENDBRANCH   7   9
ENDBRANCH   5   6
BRANCH   5  28
ATOM     28  CB  ASN     4      18.729   0.558   4.048  1.00  0.00     0.126 C 
BRANCH  28  29
ATOM     29  CG  ASN     4      19.427   1.588   4.957  1.00  0.00     0.276 C 
ATOM     30  ND2 ASN     4      20.566   2.062   4.528  1.00  0.00    -0.107 N 
ATOM     31  OD1 ASN     4      18.950   2.014   5.991  1.00  0.00    -0.269 OA
ENDBRANCH  28  29
ENDBRANCH   5  28
ENDBRANCH   3   5
ENDBRANCH   1   2
BRANCH   1  32
ATOM     32  CB  ARG     5      12.800   1.388   4.972  1.00  0.00     0.036 C 
BRANCH  32  33
ATOM     33  CG  ARG     5      11.562   2.112   4.438  1.00  0.00     0.029 C 
BRANCH  33  34
ATOM     34  CD  ARG     5      10.526   2.233   5.550  1.00  0.00     0.145 C 
BRANCH  34  35
ATOM     35  NE  ARG     5      10.940   1.508   6.776  1.00  0.00    -0.083 NA
ATOM     36  CZ  ARG     5      10.465   0.312   7.155  1.00  0.00     0.782 C 
ATOM     37  NH2 ARG     5      11.058  -0.392   8.133  1.00  0.00     0.063 N 
ATOM     38  NH1 ARG     5       9.475  -0.277   6.499  1.00  0.00     0.063 N 
ENDBRANCH  34  35
ENDBRANCH  33  34
ENDBRANCH  32  33
ENDBRANCH   1  32
BRANCH   1  39
ATOM     39  C   ARG     5      14.170   3.299   5.851  1.00  0.00     0.256 C 
ATOM     40  O   ARG     5      13.947   4.466   5.518  1.00  0.00    -0.270 OA
ATOM     41  N   PRO     6      14.373   2.934   7.121  1.00  0.00    -0.312 N 
ATOM     42  CA  PRO     6      14.499   3.883   8.249  1.00  0.00     0.165 C 
ATOM     43  CD  PRO     6      14.344   1.545   7.629  1.00  0.00     0.105 C 
ATOM     44  CB  PRO     6      14.820   3.010   9.463  1.00  0.00     0.034 C 
ATOM     45  CG  PRO     6      14.120   1.699   9.134  1.00  0.00     0.027 C 
BRANCH  42  46
ATOM     46  C   PRO     6      15.618   4.907   7.999  1.00  0.00     0.272 C 
ATOM     47  N   SER     7      15.408   6.185   8.285  1.00  0.00    -0.226 NA
ATOM     48  O   PRO     6      16.661   4.558   7.437  1.00  0.00    -0.269 OA
BRANCH  47  49
ATOM     49  CA  SER     7      14.165   6.778   8.834  1.00  0.00     0.219 C 
BRANCH  49  50
ATOM     50  C   SER     7      13.184   7.191   7.723  1.00  0.00     0.277 C 
ATOM     51  O   SER     7      13.625   7.612   6.659  1.00  0.00    -0.268 OA
ATOM     52  N   GLY     8      11.920   6.839   7.909  1.00  0.00    -0.226 NA
BRANCH  52  53
ATOM     53  CA  GLY     8      10.825   7.343   7.038  1.00  0.00     0.218 C 
BRANCH  53  54
ATOM     54  C   GLY     8      10.191   8.703   7.382  1.00  0.00     0.277 C 
ATOM     55  N   GLY     9      10.450   9.726   6.554  1.00  0.00    -0.226 NA
ATOM     56  O   GLY     8       9.452   8.808   8.347  1.00  0.00    -0.268 OA
BRANCH  55  57
ATOM     57  CA  GLY     9       9.942  11.094   6.781  1.00  0.00     0.218 C 
BRANCH  57  58
ATOM     58  C   GLY     9      11.079  12.059   7.195  1.00  0.00     0.277 C 
ATOM     59  O   GLY     9      11.571  11.962   8.311  1.00  0.00    -0.268 OA
ATOM     60  N   CYS    10      11.424  13.095   6.443  1.00  0.00    -0.228 NA
BRANCH  60  61
ATOM     61  CA  CYS    10      10.815  13.538   5.165  1.00  0.00     0.198 C 
BRANCH  61  62
ATOM     62  CB  CYS    10      11.129  15.004   4.846  1.00  0.00     0.103 C 
ATOM     63  SG  CYS    10      12.451  15.824   5.802  1.00  0.00    -0.080 SA
ENDBRANCH  61  62
BRANCH  61  64
ATOM     64  C   CYS    10      11.306  12.767   3.939  1.00  0.00     0.275 C 
ATOM     65  O   CYS    10      10.524  12.543   3.016  1.00  0.00    -0.268 OA
ATOM     66  N   GLY    11      12.624  12.685   3.850  1.00  0.00    -0.225 NA
BRANCH  66  67
ATOM     67  CA  GLY    11      13.283  11.509   3.264  1.00  0.00     0.226 C 
BRANCH  67  68
ATOM     68  C   GLY    11      13.192  10.426   4.350  1.00  0.00     0.211 C 
ATOM     69  O2  GLY    11      12.832   9.296   3.954  1.00  0.00    -0.646 OA
ATOM     70  O1  GLY    11      13.822  10.649   5.409  1.00  0.00    -0.646 OA
ENDBRANCH  67  68
ENDBRANCH  66  67
ENDBRANCH  61  64
ENDBRANCH  60  61
ENDBRANCH  57  58
ENDBRANCH  55  57
ENDBRANCH  53  54
ENDBRANCH  52  53
ENDBRANCH  49  50
BRANCH  49  71
ATOM     71  CB  SER     7      14.456   8.025   9.672  1.00  0.00     0.216 C 
ATOM     72  OG  SER     7      15.843   8.356   9.587  1.00  0.00    -0.218 OA
ENDBRANCH  49  71
ENDBRANCH  47  49
ENDBRANCH  42  46
ENDBRANCH   1  39
TORSDOF 33
ENDMDL
MODEL 2
REMARK VINA RESULT:      -3.3      1.831      2.860
REMARK WARNING: 32 MAX_TORS EXCEEDED!!!
REMARK  33 active torsions:
REMARK  status: ('A' for Active; 'I' for Inactive)
REMARK    1  A    between atoms: CA_2  and  C_8 
REMARK    2  A    between atoms: CA_2  and  CB_3 
REMARK    3  A    between atoms: CB_3  and  CG_4 
REMARK    4  A    between atoms: CG_4  and  CD_5 
REMARK       I    between atoms: C_8  and  N_10 
REMARK    5  A    between atoms: N_10  and  CA_11 
REMARK    6  A    between atoms: CA_11  and  C_12 
REMARK       I    between atoms: C_12  and  N_14 
REMARK    7  A    between atoms: N_14  and  CA_15 
REMARK    8  A    between atoms: CA_15  and  C_20 
REMARK    9  A    between atoms: CA_15  and  CB_16 
REMARK   10  A    between atoms: CB_16  and  CG_17 
REMARK       I    between atoms: C_20  and  N_22 
REMARK   11  A    between atoms: N_22  and  CA_23 
REMARK   12  A    between atoms: CA_23  and  CB_24 
REMARK   13  A    between atoms: CA_23  and  C_28 
REMARK   14  A    between atoms: CB_24  and  CG_25 
REMARK       I    between atoms: C_28  and  N_30 
REMARK   15  A    between atoms: N_30  and  CA_31 
REMARK   16  A    between atoms: CA_31  and  CB_32 
REMARK   17  A    between atoms: CA_31  and  C_39 
REMARK   18  A    between atoms: CB_32  and  CG_33 
REMARK   19  A    between atoms: CG_33  and  CD_34 
REMARK   20  A    between atoms: CD_34  and  NE_35 
REMARK       I    between atoms: C_39  and  N_41 
REMARK   21  A    between atoms: CA_42  and  C_46 
REMARK       I    between atoms: C_46  and  N_48 
REMARK   22  A    between atoms: N_48  and  CA_49 
REMARK   23  A    between atoms: CA_49  and  C_52 
REMARK   24  A    between atoms: CA_49  and  CB_50 
REMARK       I    between atoms: C_52  and  N_54 
REMARK   25  A    between atoms: N_54  and  CA_55 
REMARK   26  A    between atoms: CA_55  and  C_56 
REMARK       I    between atoms: C_56  and  N_58 
REMARK   27  A    between atoms: N_58  and  CA_59 
REMARK   28  A    between atoms: CA_59  and  C_60 
REMARK       I    between atoms: C_60  and  N_62 
REMARK   29  A    between atoms: N_62  and  CA_63 
REMARK   30  A    between atoms: CA_63  and  CB_64 
REMARK   31  A    between atoms: CA_63  and  C_66 
REMARK       I    between atoms: C_66  and  N_68 
REMARK   32  A    between atoms: N_68  and  CA_69 
REMARK   33  A    between atoms: CA_69  and  C_70 
ROOT
ATOM      1  CA  ARG     5      13.977   2.574   4.742  1.00  0.00     0.185 C 
ENDROOT
BRANCH   1   2
ATOM      2  N   ARG     5      15.048   1.614   5.069  1.00  0.00    -0.229 NA
ATOM      3  C   ASN     4      16.100   1.345   4.312  1.00  0.00     0.275 C 
ATOM      4  O   ASN     4      16.200   1.663   3.131  1.00  0.00    -0.268 OA
BRANCH   3   5
ATOM      5  CA  ASN     4      17.041   0.302   4.950  1.00  0.00     0.196 C 
BRANCH   5   6
ATOM      6  N   ASN     4      16.812  -1.036   4.365  1.00  0.00    -0.228 NA
ATOM      7  C   LEU     3      15.984  -1.932   4.897  1.00  0.00     0.274 C 
ATOM      8  O   LEU     3      15.315  -1.757   5.920  1.00  0.00    -0.268 OA
BRANCH   7   9
ATOM      9  CA  LEU     3      15.849  -3.233   4.107  1.00  0.00     0.186 C 
BRANCH   9  10
ATOM     10  N   LEU     3      15.638  -4.361   5.041  1.00  0.00    -0.229 NA
ATOM     11  C   GLY     2      16.594  -5.245   5.339  1.00  0.00     0.277 C 
ATOM     12  O   GLY     2      17.759  -5.113   4.994  1.00  0.00    -0.268 OA
BRANCH  11  13
ATOM     13  CA  GLY     2      16.190  -6.380   6.304  1.00  0.00     0.218 C 
BRANCH  13  14
ATOM     14  N   GLY     2      16.859  -7.695   6.154  1.00  0.00    -0.226 NA
ATOM     15  C   GLU     1      16.176  -8.810   5.872  1.00  0.00     0.289 C 
ATOM     16  O   GLU     1      14.997  -8.766   5.561  1.00  0.00    -0.268 OA
BRANCH  15  17
ATOM     17  CA  GLU     1      16.933 -10.165   5.859  1.00  0.00     0.381 C 
ATOM     18  N   GLU     1      18.397 -10.027   5.947  1.00  0.00     0.626 N 
BRANCH  17  19
ATOM     19  CB  GLU     1      16.384 -11.044   7.002  1.00  0.00     0.060 C 
BRANCH  19  20
ATOM     20  CG  GLU     1      15.424 -12.198   6.672  1.00  0.00     0.100 C 
BRANCH  20  21
ATOM     21  CD  GLU     1      15.051 -13.034   7.905  1.00  0.00     0.185 C 
ATOM     22  OE1 GLU     1      14.012 -12.743   8.524  1.00  0.00    -0.647 OA
ATOM     23  OE2 GLU     1      15.819 -13.948   8.254  1.00  0.00    -0.647 OA
ENDBRANCH  20  21
ENDBRANCH  19  20
ENDBRANCH  17  19
ENDBRANCH  15  17
ENDBRANCH  13  14
ENDBRANCH  11  13
ENDBRANCH   9  10
BRANCH   9  24
ATOM     24  CB  LEU     3      14.662  -3.104   3.144  1.00  0.00     0.034 C 
BRANCH  24  25
ATOM     25  CG  LEU     3      13.361  -3.734   3.672  1.00  0.00     0.002 C 
ATOM     26  CD1 LEU     3      12.252  -2.684   3.675  1.00  0.00     0.000 C 
ATOM     27  CD2 LEU     3      12.943  -4.938   2.821  1.00  0.00     0.000 C 
ENDBRANCH  24  25
ENDBRANCH   9  24
ENDBRANCH   7   9
ENDBRANCH   5   6
BRANCH   5  28
ATOM     28  CB  ASN     4      18.517   0.704   4.793  1.00  0.00     0.126 C 
BRANCH  28  29
ATOM     29  CG  ASN     4      18.858   2.068   5.424  1.00  0.00     0.276 C 
ATOM     30  ND2 ASN     4      18.825   2.129   6.729  1.00  0.00    -0.107 N 
ATOM     31  OD1 ASN     4      19.208   3.043   4.786  1.00  0.00    -0.269 OA
ENDBRANCH  28  29
ENDBRANCH   5  28
ENDBRANCH   3   5
ENDBRANCH   1   2
BRANCH   1  32
ATOM     32  CB  ARG     5      12.602   1.970   5.047  1.00  0.00     0.036 C 
BRANCH  32  33
ATOM     33  CG  ARG     5      11.505   2.405   4.075  1.00  0.00     0.029 C 
BRANCH  33  34
ATOM     34  CD  ARG     5      10.565   1.233   3.813  1.00  0.00     0.145 C 
BRANCH  34  35
ATOM     35  NE  ARG     5      10.202   0.523   5.063  1.00  0.00    -0.083 NA
ATOM     36  CZ  ARG     5       9.467  -0.598   5.120  1.00  0.00     0.782 C 
ATOM     37  NH2 ARG     5       9.385  -1.317   6.252  1.00  0.00     0.063 N 
ATOM     38  NH1 ARG     5       8.897  -1.105   4.037  1.00  0.00     0.063 N 
ENDBRANCH  34  35
ENDBRANCH  33  34
ENDBRANCH  32  33
ENDBRANCH   1  32
BRANCH   1  39
ATOM     39  C   ARG     5      14.170   3.861   5.565  1.00  0.00     0.256 C 
ATOM     40  O   ARG     5      14.009   4.962   5.029  1.00  0.00    -0.270 OA
ATOM     41  N   PRO     6      14.407   3.720   6.873  1.00  0.00    -0.312 N 
ATOM     42  CA  PRO     6      14.649   4.848   7.800  1.00  0.00     0.165 C 
ATOM     43  CD  PRO     6      14.310   2.453   7.631  1.00  0.00     0.105 C 
ATOM     44  CB  PRO     6      14.968   4.189   9.143  1.00  0.00     0.034 C 
ATOM     45  CG  PRO     6      14.168   2.896   9.088  1.00  0.00     0.027 C 
BRANCH  42  46
ATOM     46  C   PRO     6      15.822   5.723   7.326  1.00  0.00     0.272 C 
ATOM     47  N   SER     7      15.674   7.040   7.281  1.00  0.00    -0.226 NA
ATOM     48  O   PRO     6      16.850   5.195   6.892  1.00  0.00    -0.269 OA
BRANCH  47  49
ATOM     49  CA  SER     7      14.459   7.810   7.640  1.00  0.00     0.219 C 
BRANCH  49  50
ATOM     50  C   SER     7      13.507   7.973   6.442  1.00  0.00     0.277 C 
ATOM     51  O   SER     7      12.389   7.471   6.491  1.00  0.00    -0.268 OA
ATOM     52  N   GLY     8      13.880   8.854   5.524  1.00  0.00    -0.226 NA
BRANCH  52  53
ATOM     53  CA  GLY     8      13.182   8.973   4.216  1.00  0.00     0.218 C 
BRANCH  53  54
ATOM     54  C   GLY     8      12.114  10.069   4.060  1.00  0.00     0.277 C 
ATOM     55  N   GLY     9      12.494  11.216   3.477  1.00  0.00    -0.226 NA
ATOM     56  O   GLY     8      10.967   9.863   4.420  1.00  0.00    -0.268 OA
BRANCH  55  57
ATOM     57  CA  GLY     9      11.586  12.367   3.297  1.00  0.00     0.218 C 
BRANCH  57  58
ATOM     58  C   GLY     9      12.010  13.565   4.180  1.00  0.00     0.277 C 
ATOM     59  O   GLY     9      13.055  14.152   3.934  1.00  0.00    -0.268 OA
ATOM     60  N   CYS    10      11.364  13.873   5.296  1.00  0.00    -0.228 NA
BRANCH  60  61
ATOM     61  CA  CYS    10      10.212  13.165   5.908  1.00  0.00     0.198 C 
BRANCH  61  62
ATOM     62  CB  CYS    10      10.633  12.264   7.075  1.00  0.00     0.103 C 
ATOM     63  SG  CYS    10      12.417  12.072   7.407  1.00  0.00    -0.080 SA
ENDBRANCH  61  62
BRANCH  61  64
ATOM     64  C   CYS    10       9.154  14.095   6.506  1.00  0.00     0.275 C 
ATOM     65  O   CYS    10       9.463  15.250   6.796  1.00  0.00    -0.268 OA
ATOM     66  N   GLY    11       7.914  13.656   6.364  1.00  0.00    -0.225 NA
BRANCH  66  67
ATOM     67  CA  GLY    11       6.882  13.928   7.374  1.00  0.00     0.226 C 
BRANCH  67  68
ATOM     68  C   GLY    11       6.819  12.651   8.226  1.00  0.00     0.211 C 
ATOM     69  O2  GLY    11       6.056  11.757   7.801  1.00  0.00    -0.646 OA
ATOM     70  O1  GLY    11       7.773  12.466   9.016  1.00  0.00    -0.646 OA
ENDBRANCH  67  68
ENDBRANCH  66  67
ENDBRANCH  61  64
ENDBRANCH  60  61
ENDBRANCH  57  58
ENDBRANCH  55  57
ENDBRANCH  53  54
ENDBRANCH  52  53
ENDBRANCH  49  50
BRANCH  49  71
ATOM     71  CB  SER     7      14.806   9.213   8.141  1.00  0.00     0.216 C 
ATOM     72  OG  SER     7      14.761   9.245   9.568  1.00  0.00    -0.218 OA
ENDBRANCH  49  71
ENDBRANCH  47  49
ENDBRANCH  42  46
ENDBRANCH   1  39
TORSDOF 33
ENDMDL
MODEL 3
REMARK VINA RESULT:      -3.2      2.044      3.055
REMARK WARNING: 32 MAX_TORS EXCEEDED!!!
REMARK  33 active torsions:
REMARK  status: ('A' for Active; 'I' for Inactive)
REMARK    1  A    between atoms: CA_2  and  C_8 
REMARK    2  A    between atoms: CA_2  and  CB_3 
REMARK    3  A    between atoms: CB_3  and  CG_4 
REMARK    4  A    between atoms: CG_4  and  CD_5 
REMARK       I    between atoms: C_8  and  N_10 
REMARK    5  A    between atoms: N_10  and  CA_11 
REMARK    6  A    between atoms: CA_11  and  C_12 
REMARK       I    between atoms: C_12  and  N_14 
REMARK    7  A    between atoms: N_14  and  CA_15 
REMARK    8  A    between atoms: CA_15  and  C_20 
REMARK    9  A    between atoms: CA_15  and  CB_16 
REMARK   10  A    between atoms: CB_16  and  CG_17 
REMARK       I    between atoms: C_20  and  N_22 
REMARK   11  A    between atoms: N_22  and  CA_23 
REMARK   12  A    between atoms: CA_23  and  CB_24 
REMARK   13  A    between atoms: CA_23  and  C_28 
REMARK   14  A    between atoms: CB_24  and  CG_25 
REMARK       I    between atoms: C_28  and  N_30 
REMARK   15  A    between atoms: N_30  and  CA_31 
REMARK   16  A    between atoms: CA_31  and  CB_32 
REMARK   17  A    between atoms: CA_31  and  C_39 
REMARK   18  A    between atoms: CB_32  and  CG_33 
REMARK   19  A    between atoms: CG_33  and  CD_34 
REMARK   20  A    between atoms: CD_34  and  NE_35 
REMARK       I    between atoms: C_39  and  N_41 
REMARK   21  A    between atoms: CA_42  and  C_46 
REMARK       I    between atoms: C_46  and  N_48 
REMARK   22  A    between atoms: N_48  and  CA_49 
REMARK   23  A    between atoms: CA_49  and  C_52 
REMARK   24  A    between atoms: CA_49  and  CB_50 
REMARK       I    between atoms: C_52  and  N_54 
REMARK   25  A    between atoms: N_54  and  CA_55 
REMARK   26  A    between atoms: CA_55  and  C_56 
REMARK       I    between atoms: C_56  and  N_58 
REMARK   27  A    between atoms: N_58  and  CA_59 
REMARK   28  A    between atoms: CA_59  and  C_60 
REMARK       I    between atoms: C_60  and  N_62 
REMARK   29  A    between atoms: N_62  and  CA_63 
REMARK   30  A    between atoms: CA_63  and  CB_64 
REMARK   31  A    between atoms: CA_63  and  C_66 
REMARK       I    between atoms: C_66  and  N_68 
REMARK   32  A    between atoms: N_68  and  CA_69 
REMARK   33  A    between atoms: CA_69  and  C_70 
ROOT
ATOM      1  CA  ARG     5      13.920   1.873   4.799  1.00  0.00     0.185 C 
ENDROOT
BRANCH   1   2
ATOM      2  N   ARG     5      15.195   1.142   4.922  1.00  0.00    -0.229 NA
ATOM      3  C   ASN     4      16.246   1.284   4.130  1.00  0.00     0.275 C 
ATOM      4  O   ASN     4      16.218   1.851   3.042  1.00  0.00    -0.268 OA
BRANCH   3   5
ATOM      5  CA  ASN     4      17.427   0.380   4.539  1.00  0.00     0.196 C 
BRANCH   5   6
ATOM      6  N   ASN     4      17.388  -0.898   3.798  1.00  0.00    -0.228 NA
ATOM      7  C   LEU     3      17.491  -2.086   4.389  1.00  0.00     0.274 C 
ATOM      8  O   LEU     3      17.620  -2.264   5.604  1.00  0.00    -0.268 OA
BRANCH   7   9
ATOM      9  CA  LEU     3      17.372  -3.285   3.449  1.00  0.00     0.186 C 
BRANCH   9  10
ATOM     10  N   LEU     3      17.813  -4.511   4.151  1.00  0.00    -0.229 NA
ATOM     11  C   GLY     2      18.889  -5.211   3.783  1.00  0.00     0.277 C 
ATOM     12  O   GLY     2      19.686  -4.821   2.942  1.00  0.00    -0.268 OA
BRANCH  11  13
ATOM     13  CA  GLY     2      19.182  -6.485   4.603  1.00  0.00     0.218 C 
BRANCH  13  14
ATOM     14  N   GLY     2      18.310  -6.783   5.765  1.00  0.00    -0.226 NA
ATOM     15  C   GLU     1      17.755  -7.988   5.945  1.00  0.00     0.289 C 
ATOM     16  O   GLU     1      18.076  -8.939   5.252  1.00  0.00    -0.268 OA
BRANCH  15  17
ATOM     17  CA  GLU     1      16.753  -8.180   7.114  1.00  0.00     0.381 C 
ATOM     18  N   GLU     1      17.128  -7.454   8.341  1.00  0.00     0.626 N 
BRANCH  17  19
ATOM     19  CB  GLU     1      15.347  -7.772   6.629  1.00  0.00     0.060 C 
BRANCH  19  20
ATOM     20  CG  GLU     1      14.518  -8.764   5.800  1.00  0.00     0.100 C 
BRANCH  20  21
ATOM     21  CD  GLU     1      13.719  -9.746   6.670  1.00  0.00     0.185 C 
ATOM     22  OE1 GLU     1      14.001 -10.956   6.608  1.00  0.00    -0.647 OA
ATOM     23  OE2 GLU     1      12.802  -9.296   7.379  1.00  0.00    -0.647 OA
ENDBRANCH  20  21
ENDBRANCH  19  20
ENDBRANCH  17  19
ENDBRANCH  15  17
ENDBRANCH  13  14
ENDBRANCH  11  13
ENDBRANCH   9  10
BRANCH   9  24
ATOM     24  CB  LEU     3      15.911  -3.418   3.001  1.00  0.00     0.034 C 
BRANCH  24  25
ATOM     25  CG  LEU     3      14.971  -3.949   4.098  1.00  0.00     0.002 C 
ATOM     26  CD1 LEU     3      13.933  -2.882   4.439  1.00  0.00     0.000 C 
ATOM     27  CD2 LEU     3      14.271  -5.238   3.652  1.00  0.00     0.000 C 
ENDBRANCH  24  25
ENDBRANCH   9  24
ENDBRANCH   7   9
ENDBRANCH   5   6
BRANCH   5  28
ATOM     28  CB  ASN     4      18.778   1.082   4.317  1.00  0.00     0.126 C 
BRANCH  28  29
ATOM     29  CG  ASN     4      19.655   1.153   5.582  1.00  0.00     0.276 C 
ATOM     30  ND2 ASN     4      20.118   0.017   6.031  1.00  0.00    -0.107 N 
ATOM     31  OD1 ASN     4      19.978   2.192   6.126  1.00  0.00    -0.269 OA
ENDBRANCH  28  29
ENDBRANCH   5  28
ENDBRANCH   3   5
ENDBRANCH   1   2
BRANCH   1  32
ATOM     32  CB  ARG     5      12.742   0.964   5.165  1.00  0.00     0.036 C 
BRANCH  32  33
ATOM     33  CG  ARG     5      11.454   1.284   4.404  1.00  0.00     0.029 C 
BRANCH  33  34
ATOM     34  CD  ARG     5      10.405   1.806   5.381  1.00  0.00     0.145 C 
BRANCH  34  35
ATOM     35  NE  ARG     5      10.849   1.684   6.790  1.00  0.00    -0.083 NA
ATOM     36  CZ  ARG     5      10.861   2.689   7.678  1.00  0.00     0.782 C 
ATOM     37  NH2 ARG     5      11.040   2.455   8.989  1.00  0.00     0.063 N 
ATOM     38  NH1 ARG     5      10.574   3.932   7.318  1.00  0.00     0.063 N 
ENDBRANCH  34  35
ENDBRANCH  33  34
ENDBRANCH  32  33
ENDBRANCH   1  32
BRANCH   1  39
ATOM     39  C   ARG     5      13.936   3.098   5.733  1.00  0.00     0.256 C 
ATOM     40  O   ARG     5      13.492   4.178   5.334  1.00  0.00    -0.270 OA
ATOM     41  N   PRO     6      14.346   2.902   6.990  1.00  0.00    -0.312 N 
ATOM     42  CA  PRO     6      14.455   3.974   8.005  1.00  0.00     0.165 C 
ATOM     43  CD  PRO     6      14.600   1.585   7.614  1.00  0.00     0.105 C 
ATOM     44  CB  PRO     6      15.055   3.289   9.234  1.00  0.00     0.034 C 
ATOM     45  CG  PRO     6      14.537   1.863   9.117  1.00  0.00     0.027 C 
BRANCH  42  46
ATOM     46  C   PRO     6      15.360   5.118   7.518  1.00  0.00     0.272 C 
ATOM     47  N   SER     7      14.877   6.352   7.465  1.00  0.00    -0.226 NA
ATOM     48  O   PRO     6      16.488   4.871   7.081  1.00  0.00    -0.269 OA
BRANCH  47  49
ATOM     49  CA  SER     7      13.506   6.785   7.826  1.00  0.00     0.219 C 
BRANCH  49  50
ATOM     50  C   SER     7      12.744   7.352   6.615  1.00  0.00     0.277 C 
ATOM     51  O   SER     7      11.522   7.453   6.668  1.00  0.00    -0.268 OA
ATOM     52  N   GLY     8      13.490   7.916   5.676  1.00  0.00    -0.226 NA
BRANCH  52  53
ATOM     53  CA  GLY     8      12.929   8.317   4.359  1.00  0.00     0.218 C 
BRANCH  53  54
ATOM     54  C   GLY     8      12.227   9.683   4.255  1.00  0.00     0.277 C 
ATOM     55  N   GLY     9      13.007  10.760   4.079  1.00  0.00    -0.226 NA
ATOM     56  O   GLY     8      11.009   9.751   4.289  1.00  0.00    -0.268 OA
BRANCH  55  57
ATOM     57  CA  GLY     9      12.475  12.136   4.002  1.00  0.00     0.218 C 
BRANCH  57  58
ATOM     58  C   GLY     9      12.681  12.898   5.333  1.00  0.00     0.277 C 
ATOM     59  O   GLY     9      13.817  13.176   5.695  1.00  0.00    -0.268 OA
ATOM     60  N   CYS    10      11.681  13.115   6.176  1.00  0.00    -0.228 NA
BRANCH  60  61
ATOM     61  CA  CYS    10      10.271  12.673   6.051  1.00  0.00     0.198 C 
BRANCH  61  62
ATOM     62  CB  CYS    10       9.917  11.561   7.046  1.00  0.00     0.103 C 
ATOM     63  SG  CYS    10      11.257  10.883   8.084  1.00  0.00    -0.080 SA
ENDBRANCH  61  62
BRANCH  61  64
ATOM     64  C   CYS    10       9.244  13.773   6.328  1.00  0.00     0.275 C 
ATOM     65  O   CYS    10       8.082  13.617   5.957  1.00  0.00    -0.268 OA
ATOM     66  N   GLY    11       9.641  14.662   7.224  1.00  0.00    -0.225 NA
BRANCH  66  67
ATOM     67  CA  GLY    11       9.230  16.071   7.144  1.00  0.00     0.226 C 
BRANCH  67  68
ATOM     68  C   GLY    11       8.463  16.331   8.450  1.00  0.00     0.211 C 
ATOM     69  O2  GLY    11       7.337  15.794   8.530  1.00  0.00    -0.646 OA
ATOM     70  O1  GLY    11       9.147  16.714   9.426  1.00  0.00    -0.646 OA
ENDBRANCH  67  68
ENDBRANCH  66  67
ENDBRANCH  61  64
ENDBRANCH  60  61
ENDBRANCH  57  58
ENDBRANCH  55  57
ENDBRANCH  53  54
ENDBRANCH  52  53
ENDBRANCH  49  50
BRANCH  49  71
ATOM     71  CB  SER     7      13.520   7.870   8.904  1.00  0.00     0.216 C 
ATOM     72  OG  SER     7      14.629   8.746   8.698  1.00  0.00    -0.218 OA
ENDBRANCH  49  71
ENDBRANCH  47  49
ENDBRANCH  42  46
ENDBRANCH   1  39
TORSDOF 33
ENDMDL
MODEL 4
REMARK VINA RESULT:      -3.0     11.659     24.615
REMARK WARNING: 32 MAX_TORS EXCEEDED!!!
REMARK  33 active torsions:
REMARK  status: ('A' for Active; 'I' for Inactive)
REMARK    1  A    between atoms: CA_2  and  C_8 
REMARK    2  A    between atoms: CA_2  and  CB_3 
REMARK    3  A    between atoms: CB_3  and  CG_4 
REMARK    4  A    between atoms: CG_4  and  CD_5 
REMARK       I    between atoms: C_8  and  N_10 
REMARK    5  A    between atoms: N_10  and  CA_11 
REMARK    6  A    between atoms: CA_11  and  C_12 
REMARK       I    between atoms: C_12  and  N_14 
REMARK    7  A    between atoms: N_14  and  CA_15 
REMARK    8  A    between atoms: CA_15  and  C_20 
REMARK    9  A    between atoms: CA_15  and  CB_16 
REMARK   10  A    between atoms: CB_16  and  CG_17 
REMARK       I    between atoms: C_20  and  N_22 
REMARK   11  A    between atoms: N_22  and  CA_23 
REMARK   12  A    between atoms: CA_23  and  CB_24 
REMARK   13  A    between atoms: CA_23  and  C_28 
REMARK   14  A    between atoms: CB_24  and  CG_25 
REMARK       I    between atoms: C_28  and  N_30 
REMARK   15  A    between atoms: N_30  and  CA_31 
REMARK   16  A    between atoms: CA_31  and  CB_32 
REMARK   17  A    between atoms: CA_31  and  C_39 
REMARK   18  A    between atoms: CB_32  and  CG_33 
REMARK   19  A    between atoms: CG_33  and  CD_34 
REMARK   20  A    between atoms: CD_34  and  NE_35 
REMARK       I    between atoms: C_39  and  N_41 
REMARK   21  A    between atoms: CA_42  and  C_46 
REMARK       I    between atoms: C_46  and  N_48 
REMARK   22  A    between atoms: N_48  and  CA_49 
REMARK   23  A    between atoms: CA_49  and  C_52 
REMARK   24  A    between atoms: CA_49  and  CB_50 
REMARK       I    between atoms: C_52  and  N_54 
REMARK   25  A    between atoms: N_54  and  CA_55 
REMARK   26  A    between atoms: CA_55  and  C_56 
REMARK       I    between atoms: C_56  and  N_58 
REMARK   27  A    between atoms: N_58  and  CA_59 
REMARK   28  A    between atoms: CA_59  and  C_60 
REMARK       I    between atoms: C_60  and  N_62 
REMARK   29  A    between atoms: N_62  and  CA_63 
REMARK   30  A    between atoms: CA_63  and  CB_64 
REMARK   31  A    between atoms: CA_63  and  C_66 
REMARK       I    between atoms: C_66  and  N_68 
REMARK   32  A    between atoms: N_68  and  CA_69 
REMARK   33  A    between atoms: CA_69  and  C_70 
ROOT
ATOM      1  CA  ARG     5      11.102 -17.089   6.982  1.00  0.00     0.185 C 
ENDROOT
BRANCH   1   2
ATOM      2  N   ARG     5      11.558 -15.865   6.299  1.00  0.00    -0.229 NA
ATOM      3  C   ASN     4      12.396 -14.969   6.799  1.00  0.00     0.275 C 
ATOM      4  O   ASN     4      12.708 -14.903   7.984  1.00  0.00    -0.268 OA
BRANCH   3   5
ATOM      5  CA  ASN     4      12.680 -13.810   5.822  1.00  0.00     0.196 C 
BRANCH   5   6
ATOM      6  N   ASN     4      13.801 -12.979   6.310  1.00  0.00    -0.228 NA
ATOM      7  C   LEU     3      15.078 -13.335   6.190  1.00  0.00     0.274 C 
ATOM      8  O   LEU     3      15.475 -14.377   5.661  1.00  0.00    -0.268 OA
BRANCH   7   9
ATOM      9  CA  LEU     3      16.084 -12.309   6.711  1.00  0.00     0.186 C 
BRANCH   9  10
ATOM     10  N   LEU     3      15.455 -10.970   6.744  1.00  0.00    -0.229 NA
ATOM     11  C   GLY     2      16.038  -9.882   6.232  1.00  0.00     0.277 C 
ATOM     12  O   GLY     2      17.059  -9.922   5.562  1.00  0.00    -0.268 OA
BRANCH  11  13
ATOM     13  CA  GLY     2      15.257  -8.560   6.387  1.00  0.00     0.218 C 
BRANCH  13  14
ATOM     14  N   GLY     2      15.965  -7.292   6.089  1.00  0.00    -0.226 NA
ATOM     15  C   GLU     1      16.262  -6.404   7.044  1.00  0.00     0.289 C 
ATOM     16  O   GLU     1      16.113  -6.674   8.224  1.00  0.00    -0.268 OA
BRANCH  15  17
ATOM     17  CA  GLU     1      16.888  -5.045   6.631  1.00  0.00     0.381 C 
ATOM     18  N   GLU     1      18.224  -4.808   7.208  1.00  0.00     0.626 N 
BRANCH  17  19
ATOM     19  CB  GLU     1      16.922  -4.968   5.091  1.00  0.00     0.060 C 
BRANCH  19  20
ATOM     20  CG  GLU     1      16.246  -3.785   4.381  1.00  0.00     0.100 C 
BRANCH  20  21
ATOM     21  CD  GLU     1      14.774  -4.060   4.037  1.00  0.00     0.185 C 
ATOM     22  OE1 GLU     1      13.904  -3.319   4.528  1.00  0.00    -0.647 OA
ATOM     23  OE2 GLU     1      14.509  -5.031   3.306  1.00  0.00    -0.647 OA
ENDBRANCH  20  21
ENDBRANCH  19  20
ENDBRANCH  17  19
ENDBRANCH  15  17
ENDBRANCH  13  14
ENDBRANCH  11  13
ENDBRANCH   9  10
BRANCH   9  24
ATOM     24  CB  LEU     3      16.531 -12.727   8.118  1.00  0.00     0.034 C 
BRANCH  24  25
ATOM     25  CG  LEU     3      17.969 -13.274   8.176  1.00  0.00     0.002 C 
ATOM     26  CD1 LEU     3      17.930 -14.798   8.269  1.00  0.00     0.000 C 
ATOM     27  CD2 LEU     3      18.776 -12.843   6.947  1.00  0.00     0.000 C 
ENDBRANCH  24  25
ENDBRANCH   9  24
ENDBRANCH   7   9
ENDBRANCH   5   6
BRANCH   5  28
ATOM     28  CB  ASN     4      12.980 -14.328   4.405  1.00  0.00     0.126 C 
BRANCH  28  29
ATOM     29  CG  ASN     4      12.040 -13.758   3.325  1.00  0.00     0.276 C 
ATOM     30  ND2 ASN     4      11.445 -14.629   2.555  1.00  0.00    -0.107 N 
ATOM     31  OD1 ASN     4      11.784 -12.575   3.205  1.00  0.00    -0.269 OA
ENDBRANCH  28  29
ENDBRANCH   5  28
ENDBRANCH   3   5
ENDBRANCH   1   2
BRANCH   1  32
ATOM     32  CB  ARG     5       9.571 -17.173   6.970  1.00  0.00     0.036 C 
BRANCH  32  33
ATOM     33  CG  ARG     5       8.877 -15.841   7.259  1.00  0.00     0.029 C 
BRANCH  33  34
ATOM     34  CD  ARG     5       8.198 -15.909   8.624  1.00  0.00     0.145 C 
BRANCH  34  35
ATOM     35  NE  ARG     5       6.722 -15.812   8.514  1.00  0.00    -0.083 NA
ATOM     36  CZ  ARG     5       5.988 -14.784   8.964  1.00  0.00     0.782 C 
ATOM     37  NH2 ARG     5       4.698 -14.648   8.616  1.00  0.00     0.063 N 
ATOM     38  NH1 ARG     5       6.534 -13.799   9.664  1.00  0.00     0.063 N 
ENDBRANCH  34  35
ENDBRANCH  33  34
ENDBRANCH  32  33
ENDBRANCH   1  32
BRANCH   1  39
ATOM     39  C   ARG     5      11.691 -18.324   6.275  1.00  0.00     0.256 C 
ATOM     40  O   ARG     5      12.183 -19.237   6.944  1.00  0.00    -0.270 OA
ATOM     41  N   PRO     6      11.547 -18.395   4.948  1.00  0.00    -0.312 N 
ATOM     42  CA  PRO     6      12.082 -19.492   4.111  1.00  0.00     0.165 C 
ATOM     43  CD  PRO     6      10.708 -17.494   4.127  1.00  0.00     0.105 C 
ATOM     44  CB  PRO     6      11.757 -19.082   2.673  1.00  0.00     0.034 C 
ATOM     45  CG  PRO     6      10.479 -18.271   2.830  1.00  0.00     0.027 C 
BRANCH  42  46
ATOM     46  C   PRO     6      13.598 -19.658   4.305  1.00  0.00     0.272 C 
ATOM     47  N   SER     7      14.099 -20.869   4.507  1.00  0.00    -0.226 NA
ATOM     48  O   PRO     6      14.324 -18.662   4.379  1.00  0.00    -0.269 OA
BRANCH  47  49
ATOM     49  CA  SER     7      13.343 -22.142   4.581  1.00  0.00     0.219 C 
BRANCH  49  50
ATOM     50  C   SER     7      13.410 -22.771   5.984  1.00  0.00     0.277 C 
ATOM     51  O   SER     7      14.082 -22.227   6.854  1.00  0.00    -0.268 OA
ATOM     52  N   GLY     8      12.540 -23.742   6.224  1.00  0.00    -0.226 NA
BRANCH  52  53
ATOM     53  CA  GLY     8      12.617 -24.585   7.446  1.00  0.00     0.218 C 
BRANCH  53  54
ATOM     54  C   GLY     8      11.390 -25.434   7.822  1.00  0.00     0.277 C 
ATOM     55  N   GLY     9      10.238 -24.782   8.040  1.00  0.00    -0.226 NA
ATOM     56  O   GLY     8      11.476 -26.650   7.870  1.00  0.00    -0.268 OA
BRANCH  55  57
ATOM     57  CA  GLY     9       8.991 -25.462   8.446  1.00  0.00     0.218 C 
BRANCH  57  58
ATOM     58  C   GLY     9       7.830 -25.142   7.475  1.00  0.00     0.277 C 
ATOM     59  O   GLY     9       7.311 -24.033   7.505  1.00  0.00    -0.268 OA
ATOM     60  N   CYS    10       7.267 -26.079   6.726  1.00  0.00    -0.228 NA
BRANCH  60  61
ATOM     61  CA  CYS    10       7.579 -27.529   6.693  1.00  0.00     0.198 C 
BRANCH  61  62
ATOM     62  CB  CYS    10       6.369 -28.396   7.062  1.00  0.00     0.103 C 
ATOM     63  SG  CYS    10       5.001 -27.609   7.979  1.00  0.00    -0.080 SA
ENDBRANCH  61  62
BRANCH  61  64
ATOM     64  C   CYS    10       8.011 -28.044   5.318  1.00  0.00     0.275 C 
ATOM     65  O   CYS    10       8.760 -29.016   5.249  1.00  0.00    -0.268 OA
ATOM     66  N   GLY    11       7.279 -27.579   4.318  1.00  0.00    -0.225 NA
BRANCH  66  67
ATOM     67  CA  GLY    11       7.859 -27.333   2.991  1.00  0.00     0.226 C 
BRANCH  67  68
ATOM     68  C   GLY    11       7.842 -25.805   2.831  1.00  0.00     0.211 C 
ATOM     69  O2  GLY    11       8.950 -25.274   2.603  1.00  0.00    -0.646 OA
ATOM     70  O1  GLY    11       6.730 -25.289   2.571  1.00  0.00    -0.646 OA
ENDBRANCH  67  68
ENDBRANCH  66  67
ENDBRANCH  61  64
ENDBRANCH  60  61
ENDBRANCH  57  58
ENDBRANCH  55  57
ENDBRANCH  53  54
ENDBRANCH  52  53
ENDBRANCH  49  50
BRANCH  49  71
ATOM     71  CB  SER     7      13.879 -23.178   3.591  1.00  0.00     0.216 C 
ATOM     72  OG  SER     7      15.094 -23.742   4.088  1.00  0.00    -0.218 OA
ENDBRANCH  49  71
ENDBRANCH  47  49
ENDBRANCH  42  46
ENDBRANCH   1  39
TORSDOF 33
ENDMDL
MODEL 5
REMARK VINA RESULT:      -3.0     24.398     30.474
REMARK WARNING: 32 MAX_TORS EXCEEDED!!!
REMARK  33 active torsions:
REMARK  status: ('A' for Active; 'I' for Inactive)
REMARK    1  A    between atoms: CA_2  and  C_8 
REMARK    2  A    between atoms: CA_2  and  CB_3 
REMARK    3  A    between atoms: CB_3  and  CG_4 
REMARK    4  A    between atoms: CG_4  and  CD_5 
REMARK       I    between atoms: C_8  and  N_10 
REMARK    5  A    between atoms: N_10  and  CA_11 
REMARK    6  A    between atoms: CA_11  and  C_12 
REMARK       I    between atoms: C_12  and  N_14 
REMARK    7  A    between atoms: N_14  and  CA_15 
REMARK    8  A    between atoms: CA_15  and  C_20 
REMARK    9  A    between atoms: CA_15  and  CB_16 
REMARK   10  A    between atoms: CB_16  and  CG_17 
REMARK       I    between atoms: C_20  and  N_22 
REMARK   11  A    between atoms: N_22  and  CA_23 
REMARK   12  A    between atoms: CA_23  and  CB_24 
REMARK   13  A    between atoms: CA_23  and  C_28 
REMARK   14  A    between atoms: CB_24  and  CG_25 
REMARK       I    between atoms: C_28  and  N_30 
REMARK   15  A    between atoms: N_30  and  CA_31 
REMARK   16  A    between atoms: CA_31  and  CB_32 
REMARK   17  A    between atoms: CA_31  and  C_39 
REMARK   18  A    between atoms: CB_32  and  CG_33 
REMARK   19  A    between atoms: CG_33  and  CD_34 
REMARK   20  A    between atoms: CD_34  and  NE_35 
REMARK       I    between atoms: C_39  and  N_41 
REMARK   21  A    between atoms: CA_42  and  C_46 
REMARK       I    between atoms: C_46  and  N_48 
REMARK   22  A    between atoms: N_48  and  CA_49 
REMARK   23  A    between atoms: CA_49  and  C_52 
REMARK   24  A    between atoms: CA_49  and  CB_50 
REMARK       I    between atoms: C_52  and  N_54 
REMARK   25  A    between atoms: N_54  and  CA_55 
REMARK   26  A    between atoms: CA_55  and  C_56 
REMARK       I    between atoms: C_56  and  N_58 
REMARK   27  A    between atoms: N_58  and  CA_59 
REMARK   28  A    between atoms: CA_59  and  C_60 
REMARK       I    between atoms: C_60  and  N_62 
REMARK   29  A    between atoms: N_62  and  CA_63 
REMARK   30  A    between atoms: CA_63  and  CB_64 
REMARK   31  A    between atoms: CA_63  and  C_66 
REMARK       I    between atoms: C_66  and  N_68 
REMARK   32  A    between atoms: N_68  and  CA_69 
REMARK   33  A    between atoms: CA_69  and  C_70 
ROOT
ATOM      1  CA  ARG     5       2.808 -25.086   6.577  1.00  0.00     0.185 C 
ENDROOT
BRANCH   1   2
ATOM      2  N   ARG     5       3.150 -23.668   6.791  1.00  0.00    -0.229 NA
ATOM      3  C   ASN     4       3.735 -23.170   7.870  1.00  0.00     0.275 C 
ATOM      4  O   ASN     4       3.842 -23.769   8.935  1.00  0.00    -0.268 OA
BRANCH   3   5
ATOM      5  CA  ASN     4       3.966 -21.648   7.772  1.00  0.00     0.196 C 
BRANCH   5   6
ATOM      6  N   ASN     4       2.691 -20.940   7.531  1.00  0.00    -0.228 NA
ATOM      7  C   LEU     3       1.769 -20.758   8.474  1.00  0.00     0.274 C 
ATOM      8  O   LEU     3       1.868 -21.143   9.643  1.00  0.00    -0.268 OA
BRANCH   7   9
ATOM      9  CA  LEU     3       0.547 -19.954   8.033  1.00  0.00     0.186 C 
BRANCH   9  10
ATOM     10  N   LEU     3      -0.649 -20.827   8.039  1.00  0.00    -0.229 NA
ATOM     11  C   GLY     2      -1.051 -21.513   6.965  1.00  0.00     0.277 C 
ATOM     12  O   GLY     2      -0.390 -21.604   5.942  1.00  0.00    -0.268 OA
BRANCH  11  13
ATOM     13  CA  GLY     2      -2.340 -22.343   7.138  1.00  0.00     0.218 C 
BRANCH  13  14
ATOM     14  N   GLY     2      -3.643 -21.650   6.991  1.00  0.00    -0.226 NA
ATOM     15  C   GLU     1      -4.544 -21.617   7.979  1.00  0.00     0.289 C 
ATOM     16  O   GLU     1      -4.266 -22.011   9.099  1.00  0.00    -0.268 OA
BRANCH  15  17
ATOM     17  CA  GLU     1      -5.933 -20.982   7.701  1.00  0.00     0.381 C 
ATOM     18  N   GLU     1      -5.892 -19.864   6.742  1.00  0.00     0.626 N 
BRANCH  17  19
ATOM     19  CB  GLU     1      -6.893 -22.092   7.226  1.00  0.00     0.060 C 
BRANCH  19  20
ATOM     20  CG  GLU     1      -7.289 -22.163   5.743  1.00  0.00     0.100 C 
BRANCH  20  21
ATOM     21  CD  GLU     1      -6.320 -23.013   4.908  1.00  0.00     0.185 C 
ATOM     22  OE1 GLU     1      -6.203 -22.757   3.696  1.00  0.00    -0.647 OA
ATOM     23  OE2 GLU     1      -5.715 -23.943   5.468  1.00  0.00    -0.647 OA
ENDBRANCH  20  21
ENDBRANCH  19  20
ENDBRANCH  17  19
ENDBRANCH  15  17
ENDBRANCH  13  14
ENDBRANCH  11  13
ENDBRANCH   9  10
BRANCH   9  24
ATOM     24  CB  LEU     3       0.357 -18.776   8.997  1.00  0.00     0.034 C 
BRANCH  24  25
ATOM     25  CG  LEU     3       0.889 -17.437   8.454  1.00  0.00     0.002 C 
ATOM     26  CD1 LEU     3      -0.145 -16.341   8.704  1.00  0.00     0.000 C 
ATOM     27  CD2 LEU     3       2.221 -17.062   9.113  1.00  0.00     0.000 C 
ENDBRANCH  24  25
ENDBRANCH   9  24
ENDBRANCH   7   9
ENDBRANCH   5   6
BRANCH   5  28
ATOM     28  CB  ASN     4       4.648 -21.099   9.037  1.00  0.00     0.126 C 
BRANCH  28  29
ATOM     29  CG  ASN     4       6.099 -20.632   8.806  1.00  0.00     0.276 C 
ATOM     30  ND2 ASN     4       6.331 -19.357   8.971  1.00  0.00    -0.107 N 
ATOM     31  OD1 ASN     4       7.020 -21.383   8.548  1.00  0.00    -0.269 OA
ENDBRANCH  28  29
ENDBRANCH   5  28
ENDBRANCH   3   5
ENDBRANCH   1   2
BRANCH   1  32
ATOM     32  CB  ARG     5       1.694 -25.218   5.533  1.00  0.00     0.036 C 
BRANCH  32  33
ATOM     33  CG  ARG     5       0.387 -25.785   6.091  1.00  0.00     0.029 C 
BRANCH  33  34
ATOM     34  CD  ARG     5      -0.548 -26.133   4.937  1.00  0.00     0.145 C 
BRANCH  34  35
ATOM     35  NE  ARG     5      -1.646 -25.146   4.796  1.00  0.00    -0.083 NA
ATOM     36  CZ  ARG     5      -1.718 -24.215   3.833  1.00  0.00     0.782 C 
ATOM     37  NH2 ARG     5      -2.849 -23.522   3.620  1.00  0.00     0.063 N 
ATOM     38  NH1 ARG     5      -0.724 -24.030   2.976  1.00  0.00     0.063 N 
ENDBRANCH  34  35
ENDBRANCH  33  34
ENDBRANCH  32  33
ENDBRANCH   1  32
BRANCH   1  39
ATOM     39  C   ARG     5       4.056 -25.851   6.098  1.00  0.00     0.256 C 
ATOM     40  O   ARG     5       4.762 -25.374   5.204  1.00  0.00    -0.270 OA
ATOM     41  N   PRO     6       4.378 -26.968   6.757  1.00  0.00    -0.312 N 
ATOM     42  CA  PRO     6       5.523 -27.839   6.407  1.00  0.00     0.165 C 
ATOM     43  CD  PRO     6       3.759 -27.429   8.019  1.00  0.00     0.105 C 
ATOM     44  CB  PRO     6       5.420 -29.026   7.366  1.00  0.00     0.034 C 
ATOM     45  CG  PRO     6       4.776 -28.412   8.601  1.00  0.00     0.027 C 
BRANCH  42  46
ATOM     46  C   PRO     6       5.445 -28.308   4.944  1.00  0.00     0.272 C 
ATOM     47  N   SER     7       6.565 -28.481   4.256  1.00  0.00    -0.226 NA
ATOM     48  O   PRO     6       4.348 -28.416   4.388  1.00  0.00    -0.269 OA
BRANCH  47  49
ATOM     49  CA  SER     7       7.948 -28.261   4.741  1.00  0.00     0.219 C 
BRANCH  49  50
ATOM     50  C   SER     7       8.519 -26.914   4.262  1.00  0.00     0.277 C 
ATOM     51  O   SER     7       8.195 -25.884   4.843  1.00  0.00    -0.268 OA
ATOM     52  N   GLY     8       9.516 -26.987   3.392  1.00  0.00    -0.226 NA
BRANCH  52  53
ATOM     53  CA  GLY     8      10.030 -25.787   2.680  1.00  0.00     0.218 C 
BRANCH  53  54
ATOM     54  C   GLY     8      11.482 -25.351   2.945  1.00  0.00     0.277 C 
ATOM     55  N   GLY     9      11.832 -24.117   2.554  1.00  0.00    -0.226 NA
ATOM     56  O   GLY     8      12.250 -26.100   3.525  1.00  0.00    -0.268 OA
BRANCH  55  57
ATOM     57  CA  GLY     9      13.199 -23.580   2.708  1.00  0.00     0.218 C 
BRANCH  57  58
ATOM     58  C   GLY     9      13.319 -22.690   3.968  1.00  0.00     0.277 C 
ATOM     59  O   GLY     9      12.873 -21.551   3.943  1.00  0.00    -0.268 OA
ATOM     60  N   CYS    10      14.037 -23.061   5.020  1.00  0.00    -0.228 NA
BRANCH  60  61
ATOM     61  CA  CYS    10      14.847 -24.292   5.182  1.00  0.00     0.198 C 
BRANCH  61  62
ATOM     62  CB  CYS    10      16.329 -23.989   5.429  1.00  0.00     0.103 C 
ATOM     63  SG  CYS    10      16.779 -22.307   5.978  1.00  0.00    -0.080 SA
ENDBRANCH  61  62
BRANCH  61  64
ATOM     64  C   CYS    10      14.432 -25.160   6.373  1.00  0.00     0.275 C 
ATOM     65  O   CYS    10      15.141 -26.111   6.699  1.00  0.00    -0.268 OA
ATOM     66  N   GLY    11      13.504 -24.610   7.138  1.00  0.00    -0.225 NA
BRANCH  66  67
ATOM     67  CA  GLY    11      12.496 -25.425   7.831  1.00  0.00     0.226 C 
BRANCH  67  68
ATOM     68  C   GLY    11      11.413 -25.692   6.775  1.00  0.00     0.211 C 
ATOM     69  O2  GLY    11      11.020 -26.876   6.692  1.00  0.00    -0.646 OA
ATOM     70  O1  GLY    11      10.772 -24.693   6.376  1.00  0.00    -0.646 OA
ENDBRANCH  67  68
ENDBRANCH  66  67
ENDBRANCH  61  64
ENDBRANCH  60  61
ENDBRANCH  57  58
ENDBRANCH  55  57
ENDBRANCH  53  54
ENDBRANCH  52  53
ENDBRANCH  49  50
BRANCH  49  71
ATOM     71  CB  SER     7       8.899 -29.357   4.256  1.00  0.00     0.216 C 
ATOM     72  OG  SER     7       9.692 -29.831   5.346  1.00  0.00    -0.218 OA
ENDBRANCH  49  71
ENDBRANCH  47  49
ENDBRANCH  42  46
ENDBRANCH   1  39
TORSDOF 33
ENDMDL
MODEL 6
REMARK VINA RESULT:      -2.9     24.678     33.646
REMARK WARNING: 32 MAX_TORS EXCEEDED!!!
REMARK  33 active torsions:
REMARK  status: ('A' for Active; 'I' for Inactive)
REMARK    1  A    between atoms: CA_2  and  C_8 
REMARK    2  A    between atoms: CA_2  and  CB_3 
REMARK    3  A    between atoms: CB_3  and  CG_4 
REMARK    4  A    between atoms: CG_4  and  CD_5 
REMARK       I    between atoms: C_8  and  N_10 
REMARK    5  A    between atoms: N_10  and  CA_11 
REMARK    6  A    between atoms: CA_11  and  C_12 
REMARK       I    between atoms: C_12  and  N_14 
REMARK    7  A    between atoms: N_14  and  CA_15 
REMARK    8  A    between atoms: CA_15  and  C_20 
REMARK    9  A    between atoms: CA_15  and  CB_16 
REMARK   10  A    between atoms: CB_16  and  CG_17 
REMARK       I    between atoms: C_20  and  N_22 
REMARK   11  A    between atoms: N_22  and  CA_23 
REMARK   12  A    between atoms: CA_23  and  CB_24 
REMARK   13  A    between atoms: CA_23  and  C_28 
REMARK   14  A    between atoms: CB_24  and  CG_25 
REMARK       I    between atoms: C_28  and  N_30 
REMARK   15  A    between atoms: N_30  and  CA_31 
REMARK   16  A    between atoms: CA_31  and  CB_32 
REMARK   17  A    between atoms: CA_31  and  C_39 
REMARK   18  A    between atoms: CB_32  and  CG_33 
REMARK   19  A    between atoms: CG_33  and  CD_34 
REMARK   20  A    between atoms: CD_34  and  NE_35 
REMARK       I    between atoms: C_39  and  N_41 
REMARK   21  A    between atoms: CA_42  and  C_46 
REMARK       I    between atoms: C_46  and  N_48 
REMARK   22  A    between atoms: N_48  and  CA_49 
REMARK   23  A    between atoms: CA_49  and  C_52 
REMARK   24  A    between atoms: CA_49  and  CB_50 
REMARK       I    between atoms: C_52  and  N_54 
REMARK   25  A    between atoms: N_54  and  CA_55 
REMARK   26  A    between atoms: CA_55  and  C_56 
REMARK       I    between atoms: C_56  and  N_58 
REMARK   27  A    between atoms: N_58  and  CA_59 
REMARK   28  A    between atoms: CA_59  and  C_60 
REMARK       I    between atoms: C_60  and  N_62 
REMARK   29  A    between atoms: N_62  and  CA_63 
REMARK   30  A    between atoms: CA_63  and  CB_64 
REMARK   31  A    between atoms: CA_63  and  C_66 
REMARK       I    between atoms: C_66  and  N_68 
REMARK   32  A    between atoms: N_68  and  CA_69 
REMARK   33  A    between atoms: CA_69  and  C_70 
ROOT
ATOM      1  CA  ARG     5      -2.840 -25.006   4.420  1.00  0.00     0.185 C 
ENDROOT
BRANCH   1   2
ATOM      2  N   ARG     5      -4.248 -24.950   3.984  1.00  0.00    -0.229 NA
ATOM      3  C   ASN     4      -4.925 -25.944   3.432  1.00  0.00     0.275 C 
ATOM      4  O   ASN     4      -4.410 -26.961   2.978  1.00  0.00    -0.268 OA
BRANCH   3   5
ATOM      5  CA  ASN     4      -6.384 -25.562   3.105  1.00  0.00     0.196 C 
BRANCH   5   6
ATOM      6  N   ASN     4      -7.262 -26.749   3.171  1.00  0.00    -0.228 NA
ATOM      7  C   LEU     3      -7.480 -27.432   4.291  1.00  0.00     0.274 C 
ATOM      8  O   LEU     3      -6.992 -27.160   5.392  1.00  0.00    -0.268 OA
BRANCH   7   9
ATOM      9  CA  LEU     3      -8.464 -28.594   4.156  1.00  0.00     0.186 C 
BRANCH   9  10
ATOM     10  N   LEU     3      -8.436 -29.413   5.388  1.00  0.00    -0.229 NA
ATOM     11  C   GLY     2      -7.858 -30.617   5.446  1.00  0.00     0.277 C 
ATOM     12  O   GLY     2      -7.173 -31.075   4.543  1.00  0.00    -0.268 OA
BRANCH  11  13
ATOM     13  CA  GLY     2      -7.954 -31.349   6.801  1.00  0.00     0.218 C 
BRANCH  13  14
ATOM     14  N   GLY     2      -8.402 -32.763   6.800  1.00  0.00    -0.226 NA
ATOM     15  C   GLU     1      -7.838 -33.686   7.587  1.00  0.00     0.289 C 
ATOM     16  O   GLU     1      -7.045 -33.372   8.459  1.00  0.00    -0.268 OA
BRANCH  15  17
ATOM     17  CA  GLU     1      -8.277 -35.167   7.433  1.00  0.00     0.381 C 
ATOM     18  N   GLU     1      -7.738 -36.056   8.478  1.00  0.00     0.626 N 
BRANCH  17  19
ATOM     19  CB  GLU     1      -9.818 -35.220   7.393  1.00  0.00     0.060 C 
BRANCH  19  20
ATOM     20  CG  GLU     1     -10.517 -35.988   6.260  1.00  0.00     0.100 C 
BRANCH  20  21
ATOM     21  CD  GLU     1     -10.168 -35.442   4.868  1.00  0.00     0.185 C 
ATOM     22  OE1 GLU     1     -10.625 -34.333   4.536  1.00  0.00    -0.647 OA
ATOM     23  OE2 GLU     1      -9.469 -36.142   4.115  1.00  0.00    -0.647 OA
ENDBRANCH  20  21
ENDBRANCH  19  20
ENDBRANCH  17  19
ENDBRANCH  15  17
ENDBRANCH  13  14
ENDBRANCH  11  13
ENDBRANCH   9  10
BRANCH   9  24
ATOM     24  CB  LEU     3      -9.869 -28.026   3.921  1.00  0.00     0.034 C 
BRANCH  24  25
ATOM     25  CG  LEU     3     -10.409 -27.195   5.099  1.00  0.00     0.002 C 
ATOM     26  CD1 LEU     3     -10.693 -25.770   4.628  1.00  0.00     0.000 C 
ATOM     27  CD2 LEU     3     -11.682 -27.820   5.679  1.00  0.00     0.000 C 
ENDBRANCH  24  25
ENDBRANCH   9  24
ENDBRANCH   7   9
ENDBRANCH   5   6
BRANCH   5  28
ATOM     28  CB  ASN     4      -6.903 -24.463   4.048  1.00  0.00     0.126 C 
BRANCH  28  29
ATOM     29  CG  ASN     4      -7.508 -23.251   3.312  1.00  0.00     0.276 C 
ATOM     30  ND2 ASN     4      -8.748 -22.958   3.601  1.00  0.00    -0.107 N 
ATOM     31  OD1 ASN     4      -6.883 -22.539   2.549  1.00  0.00    -0.269 OA
ENDBRANCH  28  29
ENDBRANCH   5  28
ENDBRANCH   3   5
ENDBRANCH   1   2
BRANCH   1  32
ATOM     32  CB  ARG     5      -1.904 -24.644   3.262  1.00  0.00     0.036 C 
BRANCH  32  33
ATOM     33  CG  ARG     5      -0.910 -25.749   2.901  1.00  0.00     0.029 C 
BRANCH  33  34
ATOM     34  CD  ARG     5      -1.010 -26.876   3.924  1.00  0.00     0.145 C 
BRANCH  34  35
ATOM     35  NE  ARG     5      -0.801 -28.207   3.306  1.00  0.00    -0.083 NA
ATOM     36  CZ  ARG     5       0.361 -28.878   3.308  1.00  0.00     0.782 C 
ATOM     37  NH2 ARG     5       0.416 -30.171   2.951  1.00  0.00     0.063 N 
ATOM     38  NH1 ARG     5       1.472 -28.331   3.781  1.00  0.00     0.063 N 
ENDBRANCH  34  35
ENDBRANCH  33  34
ENDBRANCH  32  33
ENDBRANCH   1  32
BRANCH   1  39
ATOM     39  C   ARG     5      -2.622 -24.024   5.586  1.00  0.00     0.256 C 
ATOM     40  O   ARG     5      -2.225 -22.878   5.355  1.00  0.00    -0.270 OA
ATOM     41  N   PRO     6      -2.976 -24.436   6.807  1.00  0.00    -0.312 N 
ATOM     42  CA  PRO     6      -2.803 -23.633   8.038  1.00  0.00     0.165 C 
ATOM     43  CD  PRO     6      -3.735 -25.670   7.109  1.00  0.00     0.105 C 
ATOM     44  CB  PRO     6      -3.253 -24.554   9.173  1.00  0.00     0.034 C 
ATOM     45  CG  PRO     6      -4.307 -25.427   8.507  1.00  0.00     0.027 C 
BRANCH  42  46
ATOM     46  C   PRO     6      -1.338 -23.205   8.227  1.00  0.00     0.272 C 
ATOM     47  N   SER     7      -1.046 -21.916   8.339  1.00  0.00    -0.226 NA
ATOM     48  O   PRO     6      -0.436 -24.046   8.167  1.00  0.00    -0.269 OA
BRANCH  47  49
ATOM     49  CA  SER     7      -2.001 -20.782   8.294  1.00  0.00     0.219 C 
BRANCH  49  50
ATOM     50  C   SER     7      -1.331 -19.485   7.809  1.00  0.00     0.277 C 
ATOM     51  O   SER     7      -1.777 -18.911   6.822  1.00  0.00    -0.268 OA
ATOM     52  N   GLY     8      -0.451 -18.944   8.641  1.00  0.00    -0.226 NA
BRANCH  52  53
ATOM     53  CA  GLY     8       0.428 -17.817   8.234  1.00  0.00     0.218 C 
BRANCH  53  54
ATOM     54  C   GLY     8       1.937 -18.087   8.093  1.00  0.00     0.277 C 
ATOM     55  N   GLY     9       2.359 -19.338   8.324  1.00  0.00    -0.226 NA
ATOM     56  O   GLY     8       2.690 -17.193   7.742  1.00  0.00    -0.268 OA
BRANCH  55  57
ATOM     57  CA  GLY     9       3.781 -19.733   8.264  1.00  0.00     0.218 C 
BRANCH  57  58
ATOM     58  C   GLY     9       4.020 -21.094   8.961  1.00  0.00     0.277 C 
ATOM     59  O   GLY     9       3.091 -21.644   9.539  1.00  0.00    -0.268 OA
ATOM     60  N   CYS    10       5.236 -21.606   9.097  1.00  0.00    -0.228 NA
BRANCH  60  61
ATOM     61  CA  CYS    10       6.528 -21.010   8.678  1.00  0.00     0.198 C 
BRANCH  61  62
ATOM     62  CB  CYS    10       7.036 -19.959   9.672  1.00  0.00     0.103 C 
ATOM     63  SG  CYS    10       7.441 -18.299   9.029  1.00  0.00    -0.080 SA
ENDBRANCH  61  62
BRANCH  61  64
ATOM     64  C   CYS    10       7.674 -22.017   8.569  1.00  0.00     0.275 C 
ATOM     65  O   CYS    10       8.776 -21.726   9.032  1.00  0.00    -0.268 OA
ATOM     66  N   GLY    11       7.282 -23.242   8.260  1.00  0.00    -0.225 NA
BRANCH  66  67
ATOM     67  CA  GLY    11       8.120 -24.136   7.449  1.00  0.00     0.226 C 
BRANCH  67  68
ATOM     68  C   GLY    11       8.698 -25.149   8.450  1.00  0.00     0.211 C 
ATOM     69  O2  GLY    11       8.047 -26.209   8.580  1.00  0.00    -0.646 OA
ATOM     70  O1  GLY    11       9.907 -25.007   8.745  1.00  0.00    -0.646 OA
ENDBRANCH  67  68
ENDBRANCH  66  67
ENDBRANCH  61  64
ENDBRANCH  60  61
ENDBRANCH  57  58
ENDBRANCH  55  57
ENDBRANCH  53  54
ENDBRANCH  52  53
ENDBRANCH  49  50
BRANCH  49  71
ATOM     71  CB  SER     7      -2.606 -20.497   9.670  1.00  0.00     0.216 C 
ATOM     72  OG  SER     7      -3.954 -20.048   9.525  1.00  0.00    -0.218 OA
ENDBRANCH  49  71
ENDBRANCH  47  49
ENDBRANCH  42  46
ENDBRANCH   1  39
TORSDOF 33
ENDMDL
MODEL 7
REMARK VINA RESULT:      -2.9      2.289      3.010
REMARK WARNING: 32 MAX_TORS EXCEEDED!!!
REMARK  33 active torsions:
REMARK  status: ('A' for Active; 'I' for Inactive)
REMARK    1  A    between atoms: CA_2  and  C_8 
REMARK    2  A    between atoms: CA_2  and  CB_3 
REMARK    3  A    between atoms: CB_3  and  CG_4 
REMARK    4  A    between atoms: CG_4  and  CD_5 
REMARK       I    between atoms: C_8  and  N_10 
REMARK    5  A    between atoms: N_10  and  CA_11 
REMARK    6  A    between atoms: CA_11  and  C_12 
REMARK       I    between atoms: C_12  and  N_14 
REMARK    7  A    between atoms: N_14  and  CA_15 
REMARK    8  A    between atoms: CA_15  and  C_20 
REMARK    9  A    between atoms: CA_15  and  CB_16 
REMARK   10  A    between atoms: CB_16  and  CG_17 
REMARK       I    between atoms: C_20  and  N_22 
REMARK   11  A    between atoms: N_22  and  CA_23 
REMARK   12  A    between atoms: CA_23  and  CB_24 
REMARK   13  A    between atoms: CA_23  and  C_28 
REMARK   14  A    between atoms: CB_24  and  CG_25 
REMARK       I    between atoms: C_28  and  N_30 
REMARK   15  A    between atoms: N_30  and  CA_31 
REMARK   16  A    between atoms: CA_31  and  CB_32 
REMARK   17  A    between atoms: CA_31  and  C_39 
REMARK   18  A    between atoms: CB_32  and  CG_33 
REMARK   19  A    between atoms: CG_33  and  CD_34 
REMARK   20  A    between atoms: CD_34  and  NE_35 
REMARK       I    between atoms: C_39  and  N_41 
REMARK   21  A    between atoms: CA_42  and  C_46 
REMARK       I    between atoms: C_46  and  N_48 
REMARK   22  A    between atoms: N_48  and  CA_49 
REMARK   23  A    between atoms: CA_49  and  C_52 
REMARK   24  A    between atoms: CA_49  and  CB_50 
REMARK       I    between atoms: C_52  and  N_54 
REMARK   25  A    between atoms: N_54  and  CA_55 
REMARK   26  A    between atoms: CA_55  and  C_56 
REMARK       I    between atoms: C_56  and  N_58 
REMARK   27  A    between atoms: N_58  and  CA_59 
REMARK   28  A    between atoms: CA_59  and  C_60 
REMARK       I    between atoms: C_60  and  N_62 
REMARK   29  A    between atoms: N_62  and  CA_63 
REMARK   30  A    between atoms: CA_63  and  CB_64 
REMARK   31  A    between atoms: CA_63  and  C_66 
REMARK       I    between atoms: C_66  and  N_68 
REMARK   32  A    between atoms: N_68  and  CA_69 
REMARK   33  A    between atoms: CA_69  and  C_70 
ROOT
ATOM      1  CA  ARG     5      13.502   2.145   4.798  1.00  0.00     0.185 C 
ENDROOT
BRANCH   1   2
ATOM      2  N   ARG     5      14.698   1.285   4.842  1.00  0.00    -0.229 NA
ATOM      3  C   ASN     4      15.836   1.512   4.205  1.00  0.00     0.275 C 
ATOM      4  O   ASN     4      15.968   2.327   3.297  1.00  0.00    -0.268 OA
BRANCH   3   5
ATOM      5  CA  ASN     4      16.897   0.425   4.475  1.00  0.00     0.196 C 
BRANCH   5   6
ATOM      6  N   ASN     4      16.328  -0.923   4.263  1.00  0.00    -0.228 NA
ATOM      7  C   LEU     3      16.120  -1.790   5.250  1.00  0.00     0.274 C 
ATOM      8  O   LEU     3      16.364  -1.577   6.442  1.00  0.00    -0.268 OA
BRANCH   7   9
ATOM      9  CA  LEU     3      15.474  -3.108   4.826  1.00  0.00     0.186 C 
BRANCH   9  10
ATOM     10  N   LEU     3      15.832  -4.170   5.792  1.00  0.00    -0.229 NA
ATOM     11  C   GLY     2      16.809  -5.054   5.569  1.00  0.00     0.277 C 
ATOM     12  O   GLY     2      17.588  -4.969   4.631  1.00  0.00    -0.268 OA
BRANCH  11  13
ATOM     13  CA  GLY     2      17.023  -6.117   6.667  1.00  0.00     0.218 C 
BRANCH  13  14
ATOM     14  N   GLY     2      17.247  -7.521   6.246  1.00  0.00    -0.226 NA
ATOM     15  C   GLU     1      18.476  -8.028   6.094  1.00  0.00     0.289 C 
ATOM     16  O   GLU     1      19.463  -7.409   6.455  1.00  0.00    -0.268 OA
BRANCH  15  17
ATOM     17  CA  GLU     1      18.625  -9.465   5.527  1.00  0.00     0.381 C 
ATOM     18  N   GLU     1      17.342 -10.098   5.172  1.00  0.00     0.626 N 
BRANCH  17  19
ATOM     19  CB  GLU     1      19.579  -9.419   4.316  1.00  0.00     0.060 C 
BRANCH  19  20
ATOM     20  CG  GLU     1      19.850 -10.704   3.519  1.00  0.00     0.100 C 
BRANCH  20  21
ATOM     21  CD  GLU     1      21.209 -11.337   3.853  1.00  0.00     0.185 C 
ATOM     22  OE1 GLU     1      21.293 -12.578   3.878  1.00  0.00    -0.647 OA
ATOM     23  OE2 GLU     1      22.163 -10.585   4.117  1.00  0.00    -0.647 OA
ENDBRANCH  20  21
ENDBRANCH  19  20
ENDBRANCH  17  19
ENDBRANCH  15  17
ENDBRANCH  13  14
ENDBRANCH  11  13
ENDBRANCH   9  10
BRANCH   9  24
ATOM     24  CB  LEU     3      13.953  -2.918   4.776  1.00  0.00     0.034 C 
BRANCH  24  25
ATOM     25  CG  LEU     3      13.321  -3.310   3.428  1.00  0.00     0.002 C 
ATOM     26  CD1 LEU     3      13.303  -4.831   3.297  1.00  0.00     0.000 C 
ATOM     27  CD2 LEU     3      11.897  -2.756   3.301  1.00  0.00     0.000 C 
ENDBRANCH  24  25
ENDBRANCH   9  24
ENDBRANCH   7   9
ENDBRANCH   5   6
BRANCH   5  28
ATOM     28  CB  ASN     4      18.142   0.620   3.593  1.00  0.00     0.126 C 
BRANCH  28  29
ATOM     29  CG  ASN     4      19.330   1.265   4.333  1.00  0.00     0.276 C 
ATOM     30  ND2 ASN     4      19.355   2.571   4.363  1.00  0.00    -0.107 N 
ATOM     31  OD1 ASN     4      20.183   0.633   4.927  1.00  0.00    -0.269 OA
ENDBRANCH  28  29
ENDBRANCH   5  28
ENDBRANCH   3   5
ENDBRANCH   1   2
BRANCH   1  32
ATOM     32  CB  ARG     5      12.272   1.383   5.304  1.00  0.00     0.036 C 
BRANCH  32  33
ATOM     33  CG  ARG     5      10.995   1.674   4.515  1.00  0.00     0.029 C 
BRANCH  33  34
ATOM     34  CD  ARG     5       9.794   1.108   5.266  1.00  0.00     0.145 C 
BRANCH  34  35
ATOM     35  NE  ARG     5       9.453  -0.263   4.814  1.00  0.00    -0.083 NA
ATOM     36  CZ  ARG     5       9.248  -1.308   5.630  1.00  0.00     0.782 C 
ATOM     37  NH2 ARG     5       8.706  -2.449   5.173  1.00  0.00     0.063 N 
ATOM     38  NH1 ARG     5       9.453  -1.215   6.936  1.00  0.00     0.063 N 
ENDBRANCH  34  35
ENDBRANCH  33  34
ENDBRANCH  32  33
ENDBRANCH   1  32
BRANCH   1  39
ATOM     39  C   ARG     5      13.731   3.393   5.671  1.00  0.00     0.256 C 
ATOM     40  O   ARG     5      13.508   4.515   5.207  1.00  0.00    -0.270 OA
ATOM     41  N   PRO     6      14.071   3.191   6.948  1.00  0.00    -0.312 N 
ATOM     42  CA  PRO     6      14.360   4.275   7.913  1.00  0.00     0.165 C 
ATOM     43  CD  PRO     6      14.057   1.885   7.643  1.00  0.00     0.105 C 
ATOM     44  CB  PRO     6      14.794   3.556   9.191  1.00  0.00     0.034 C 
ATOM     45  CG  PRO     6      14.018   2.249   9.128  1.00  0.00     0.027 C 
BRANCH  42  46
ATOM     46  C   PRO     6      15.476   5.201   7.399  1.00  0.00     0.272 C 
ATOM     47  N   SER     7      15.279   6.512   7.388  1.00  0.00    -0.226 NA
ATOM     48  O   PRO     6      16.498   4.719   6.902  1.00  0.00    -0.269 OA
BRANCH  47  49
ATOM     49  CA  SER     7      14.057   7.230   7.822  1.00  0.00     0.219 C 
BRANCH  49  50
ATOM     50  C   SER     7      13.109   7.519   6.645  1.00  0.00     0.277 C 
ATOM     51  O   SER     7      11.966   7.076   6.672  1.00  0.00    -0.268 OA
ATOM     52  N   GLY     8      13.526   8.433   5.779  1.00  0.00    -0.226 NA
BRANCH  52  53
ATOM     53  CA  GLY     8      12.829   8.669   4.487  1.00  0.00     0.218 C 
BRANCH  53  54
ATOM     54  C   GLY     8      11.688   9.702   4.456  1.00  0.00     0.277 C 
ATOM     55  N   GLY     9      11.964  10.903   3.926  1.00  0.00    -0.226 NA
ATOM     56  O   GLY     8      10.578   9.402   4.861  1.00  0.00    -0.268 OA
BRANCH  55  57
ATOM     57  CA  GLY     9      10.980  12.003   3.865  1.00  0.00     0.218 C 
BRANCH  57  58
ATOM     58  C   GLY     9      11.042  12.888   5.133  1.00  0.00     0.277 C 
ATOM     59  O   GLY     9      10.210  12.728   6.017  1.00  0.00    -0.268 OA
ATOM     60  N   CYS    10      11.862  13.925   5.222  1.00  0.00    -0.228 NA
BRANCH  60  61
ATOM     61  CA  CYS    10      12.794  14.441   4.190  1.00  0.00     0.198 C 
BRANCH  61  62
ATOM     62  CB  CYS    10      12.722  15.966   4.048  1.00  0.00     0.103 C 
ATOM     63  SG  CYS    10      11.966  16.918   5.410  1.00  0.00    -0.080 SA
ENDBRANCH  61  62
BRANCH  61  64
ATOM     64  C   CYS    10      14.269  14.155   4.480  1.00  0.00     0.275 C 
ATOM     65  O   CYS    10      15.067  15.090   4.518  1.00  0.00    -0.268 OA
ATOM     66  N   GLY    11      14.492  12.948   4.976  1.00  0.00    -0.225 NA
BRANCH  66  67
ATOM     67  CA  GLY    11      15.729  12.212   4.680  1.00  0.00     0.226 C 
BRANCH  67  68
ATOM     68  C   GLY    11      16.201  11.675   6.041  1.00  0.00     0.211 C 
ATOM     69  O2  GLY    11      15.407  11.843   6.991  1.00  0.00    -0.646 OA
ATOM     70  O1  GLY    11      17.116  10.820   6.010  1.00  0.00    -0.646 OA
ENDBRANCH  67  68
ENDBRANCH  66  67
ENDBRANCH  61  64
ENDBRANCH  60  61
ENDBRANCH  57  58
ENDBRANCH  55  57
ENDBRANCH  53  54
ENDBRANCH  52  53
ENDBRANCH  49  50
BRANCH  49  71
ATOM     71  CB  SER     7      14.392   8.572   8.477  1.00  0.00     0.216 C 
ATOM     72  OG  SER     7      15.795   8.822   8.384  1.00  0.00    -0.218 OA
ENDBRANCH  49  71
ENDBRANCH  47  49
ENDBRANCH  42  46
ENDBRANCH   1  39
TORSDOF 33
ENDMDL
MODEL 8
REMARK VINA RESULT:      -2.9      2.574      3.791
REMARK WARNING: 32 MAX_TORS EXCEEDED!!!
REMARK  33 active torsions:
REMARK  status: ('A' for Active; 'I' for Inactive)
REMARK    1  A    between atoms: CA_2  and  C_8 
REMARK    2  A    between atoms: CA_2  and  CB_3 
REMARK    3  A    between atoms: CB_3  and  CG_4 
REMARK    4  A    between atoms: CG_4  and  CD_5 
REMARK       I    between atoms: C_8  and  N_10 
REMARK    5  A    between atoms: N_10  and  CA_11 
REMARK    6  A    between atoms: CA_11  and  C_12 
REMARK       I    between atoms: C_12  and  N_14 
REMARK    7  A    between atoms: N_14  and  CA_15 
REMARK    8  A    between atoms: CA_15  and  C_20 
REMARK    9  A    between atoms: CA_15  and  CB_16 
REMARK   10  A    between atoms: CB_16  and  CG_17 
REMARK       I    between atoms: C_20  and  N_22 
REMARK   11  A    between atoms: N_22  and  CA_23 
REMARK   12  A    between atoms: CA_23  and  CB_24 
REMARK   13  A    between atoms: CA_23  and  C_28 
REMARK   14  A    between atoms: CB_24  and  CG_25 
REMARK       I    between atoms: C_28  and  N_30 
REMARK   15  A    between atoms: N_30  and  CA_31 
REMARK   16  A    between atoms: CA_31  and  CB_32 
REMARK   17  A    between atoms: CA_31  and  C_39 
REMARK   18  A    between atoms: CB_32  and  CG_33 
REMARK   19  A    between atoms: CG_33  and  CD_34 
REMARK   20  A    between atoms: CD_34  and  NE_35 
REMARK       I    between atoms: C_39  and  N_41 
REMARK   21  A    between atoms: CA_42  and  C_46 
REMARK       I    between atoms: C_46  and  N_48 
REMARK   22  A    between atoms: N_48  and  CA_49 
REMARK   23  A    between atoms: CA_49  and  C_52 
REMARK   24  A    between atoms: CA_49  and  CB_50 
REMARK       I    between atoms: C_52  and  N_54 
REMARK   25  A    between atoms: N_54  and  CA_55 
REMARK   26  A    between atoms: CA_55  and  C_56 
REMARK       I    between atoms: C_56  and  N_58 
REMARK   27  A    between atoms: N_58  and  CA_59 
REMARK   28  A    between atoms: CA_59  and  C_60 
REMARK       I    between atoms: C_60  and  N_62 
REMARK   29  A    between atoms: N_62  and  CA_63 
REMARK   30  A    between atoms: CA_63  and  CB_64 
REMARK   31  A    between atoms: CA_63  and  C_66 
REMARK       I    between atoms: C_66  and  N_68 
REMARK   32  A    between atoms: N_68  and  CA_69 
REMARK   33  A    between atoms: CA_69  and  C_70 
ROOT
ATOM      1  CA  ARG     5      12.698   2.453   4.495  1.00  0.00     0.185 C 
ENDROOT
BRANCH   1   2
ATOM      2  N   ARG     5      13.406   1.630   5.493  1.00  0.00    -0.229 NA
ATOM      3  C   ASN     4      14.593   1.067   5.328  1.00  0.00     0.275 C 
ATOM      4  O   ASN     4      15.151   0.941   4.242  1.00  0.00    -0.268 OA
BRANCH   3   5
ATOM      5  CA  ASN     4      15.058   0.282   6.571  1.00  0.00     0.196 C 
BRANCH   5   6
ATOM      6  N   ASN     4      15.974  -0.813   6.186  1.00  0.00    -0.228 NA
ATOM      7  C   LEU     3      15.625  -2.097   6.206  1.00  0.00     0.274 C 
ATOM      8  O   LEU     3      14.514  -2.523   6.536  1.00  0.00    -0.268 OA
BRANCH   7   9
ATOM      9  CA  LEU     3      16.702  -3.065   5.719  1.00  0.00     0.186 C 
BRANCH   9  10
ATOM     10  N   LEU     3      16.739  -4.251   6.602  1.00  0.00    -0.229 NA
ATOM     11  C   GLY     2      17.879  -4.796   7.037  1.00  0.00     0.277 C 
ATOM     12  O   GLY     2      18.974  -4.278   6.875  1.00  0.00    -0.268 OA
BRANCH  11  13
ATOM     13  CA  GLY     2      17.734  -6.053   7.921  1.00  0.00     0.218 C 
BRANCH  13  14
ATOM     14  N   GLY     2      16.884  -7.162   7.424  1.00  0.00    -0.226 NA
ATOM     15  C   GLU     1      17.167  -7.821   6.295  1.00  0.00     0.289 C 
ATOM     16  O   GLU     1      18.225  -7.650   5.713  1.00  0.00    -0.268 OA
BRANCH  15  17
ATOM     17  CA  GLU     1      16.158  -8.881   5.777  1.00  0.00     0.381 C 
ATOM     18  N   GLU     1      16.572 -10.271   6.040  1.00  0.00     0.626 N 
BRANCH  17  19
ATOM     19  CB  GLU     1      14.775  -8.584   6.391  1.00  0.00     0.060 C 
BRANCH  19  20
ATOM     20  CG  GLU     1      13.778  -9.735   6.597  1.00  0.00     0.100 C 
BRANCH  20  21
ATOM     21  CD  GLU     1      13.064  -9.668   7.955  1.00  0.00     0.185 C 
ATOM     22  OE1 GLU     1      13.019 -10.699   8.650  1.00  0.00    -0.647 OA
ATOM     23  OE2 GLU     1      12.533  -8.596   8.293  1.00  0.00    -0.647 OA
ENDBRANCH  20  21
ENDBRANCH  19  20
ENDBRANCH  17  19
ENDBRANCH  15  17
ENDBRANCH  13  14
ENDBRANCH  11  13
ENDBRANCH   9  10
BRANCH   9  24
ATOM     24  CB  LEU     3      16.377  -3.478   4.278  1.00  0.00     0.034 C 
BRANCH  24  25
ATOM     25  CG  LEU     3      17.479  -3.119   3.265  1.00  0.00     0.002 C 
ATOM     26  CD1 LEU     3      18.556  -2.286   3.957  1.00  0.00     0.000 C 
ATOM     27  CD2 LEU     3      18.103  -4.379   2.654  1.00  0.00     0.000 C 
ENDBRANCH  24  25
ENDBRANCH   9  24
ENDBRANCH   7   9
ENDBRANCH   5   6
BRANCH   5  28
ATOM     28  CB  ASN     4      15.736   1.204   7.599  1.00  0.00     0.126 C 
BRANCH  28  29
ATOM     29  CG  ASN     4      14.800   1.656   8.737  1.00  0.00     0.276 C 
ATOM     30  ND2 ASN     4      14.689   2.945   8.920  1.00  0.00    -0.107 N 
ATOM     31  OD1 ASN     4      14.131   0.894   9.409  1.00  0.00    -0.269 OA
ENDBRANCH  28  29
ENDBRANCH   5  28
ENDBRANCH   3   5
ENDBRANCH   1   2
BRANCH   1  32
ATOM     32  CB  ARG     5      11.181   2.328   4.673  1.00  0.00     0.036 C 
BRANCH  32  33
ATOM     33  CG  ARG     5      10.427   2.039   3.374  1.00  0.00     0.029 C 
BRANCH  33  34
ATOM     34  CD  ARG     5      10.187   0.539   3.249  1.00  0.00     0.145 C 
BRANCH  34  35
ATOM     35  NE  ARG     5       9.584  -0.031   4.478  1.00  0.00    -0.083 NA
ATOM     36  CZ  ARG     5      10.201  -0.887   5.307  1.00  0.00     0.782 C 
ATOM     37  NH2 ARG     5       9.693  -1.167   6.519  1.00  0.00     0.063 N 
ATOM     38  NH1 ARG     5      11.392  -1.390   5.018  1.00  0.00     0.063 N 
ENDBRANCH  34  35
ENDBRANCH  33  34
ENDBRANCH  32  33
ENDBRANCH   1  32
BRANCH   1  39
ATOM     39  C   ARG     5      13.116   3.927   4.654  1.00  0.00     0.256 C 
ATOM     40  O   ARG     5      13.614   4.529   3.698  1.00  0.00    -0.270 OA
ATOM     41  N   PRO     6      12.820   4.525   5.812  1.00  0.00    -0.312 N 
ATOM     42  CA  PRO     6      13.178   5.922   6.142  1.00  0.00     0.165 C 
ATOM     43  CD  PRO     6      11.960   3.959   6.874  1.00  0.00     0.105 C 
ATOM     44  CB  PRO     6      12.726   6.112   7.590  1.00  0.00     0.034 C 
ATOM     45  CG  PRO     6      11.533   5.173   7.700  1.00  0.00     0.027 C 
BRANCH  42  46
ATOM     46  C   PRO     6      14.692   6.161   6.005  1.00  0.00     0.272 C 
ATOM     47  N   SER     7      15.126   7.276   5.433  1.00  0.00    -0.226 NA
ATOM     48  O   PRO     6      15.488   5.274   6.326  1.00  0.00    -0.269 OA
BRANCH  47  49
ATOM     49  CA  SER     7      14.294   8.369   4.876  1.00  0.00     0.219 C 
BRANCH  49  50
ATOM     50  C   SER     7      13.396   9.013   5.947  1.00  0.00     0.277 C 
ATOM     51  O   SER     7      13.906   9.462   6.968  1.00  0.00    -0.268 OA
ATOM     52  N   GLY     8      12.143   9.250   5.584  1.00  0.00    -0.226 NA
BRANCH  52  53
ATOM     53  CA  GLY     8      11.105   9.669   6.562  1.00  0.00     0.218 C 
BRANCH  53  54
ATOM     54  C   GLY     8      10.683  11.149   6.585  1.00  0.00     0.277 C 
ATOM     55  N   GLY     9      11.583  12.049   6.164  1.00  0.00    -0.226 NA
ATOM     56  O   GLY     8       9.555  11.460   6.933  1.00  0.00    -0.268 OA
BRANCH  55  57
ATOM     57  CA  GLY     9      11.330  13.505   6.167  1.00  0.00     0.218 C 
BRANCH  57  58
ATOM     58  C   GLY     9      11.014  14.027   4.746  1.00  0.00     0.277 C 
ATOM     59  O   GLY     9       9.993  13.655   4.183  1.00  0.00    -0.268 OA
ATOM     60  N   CYS    10      11.893  14.734   4.050  1.00  0.00    -0.228 NA
BRANCH  60  61
ATOM     61  CA  CYS    10      13.274  15.110   4.439  1.00  0.00     0.198 C 
BRANCH  61  62
ATOM     62  CB  CYS    10      14.294  14.816   3.333  1.00  0.00     0.103 C 
ATOM     63  SG  CYS    10      14.947  13.116   3.201  1.00  0.00    -0.080 SA
ENDBRANCH  61  62
BRANCH  61  64
ATOM     64  C   CYS    10      13.455  16.600   4.738  1.00  0.00     0.275 C 
ATOM     65  O   CYS    10      13.439  17.405   3.809  1.00  0.00    -0.268 OA
ATOM     66  N   GLY    11      13.299  16.912   6.014  1.00  0.00    -0.225 NA
BRANCH  66  67
ATOM     67  CA  GLY    11      14.061  18.003   6.638  1.00  0.00     0.226 C 
BRANCH  67  68
ATOM     68  C   GLY    11      15.463  17.420   6.870  1.00  0.00     0.211 C 
ATOM     69  O2  GLY    11      16.409  18.229   6.755  1.00  0.00    -0.646 OA
ATOM     70  O1  GLY    11      15.515  16.338   7.498  1.00  0.00    -0.646 OA
ENDBRANCH  67  68
ENDBRANCH  66  67
ENDBRANCH  61  64
ENDBRANCH  60  61
ENDBRANCH  57  58
ENDBRANCH  55  57
ENDBRANCH  53  54
ENDBRANCH  52  53
ENDBRANCH  49  50
BRANCH  49  71
ATOM     71  CB  SER     7      13.380   7.870   3.755  1.00  0.00     0.216 C 
ATOM     72  OG  SER     7      14.128   7.722   2.548  1.00  0.00    -0.218 OA
ENDBRANCH  49  71
ENDBRANCH  47  49
ENDBRANCH  42  46
ENDBRANCH   1  39
TORSDOF 33
ENDMDL
MODEL 9
REMARK VINA RESULT:      -2.7     23.246     30.318
REMARK WARNING: 32 MAX_TORS EXCEEDED!!!
REMARK  33 active torsions:
REMARK  status: ('A' for Active; 'I' for Inactive)
REMARK    1  A    between atoms: CA_2  and  C_8 
REMARK    2  A    between atoms: CA_2  and  CB_3 
REMARK    3  A    between atoms: CB_3  and  CG_4 
REMARK    4  A    between atoms: CG_4  and  CD_5 
REMARK       I    between atoms: C_8  and  N_10 
REMARK    5  A    between atoms: N_10  and  CA_11 
REMARK    6  A    between atoms: CA_11  and  C_12 
REMARK       I    between atoms: C_12  and  N_14 
REMARK    7  A    between atoms: N_14  and  CA_15 
REMARK    8  A    between atoms: CA_15  and  C_20 
REMARK    9  A    between atoms: CA_15  and  CB_16 
REMARK   10  A    between atoms: CB_16  and  CG_17 
REMARK       I    between atoms: C_20  and  N_22 
REMARK   11  A    between atoms: N_22  and  CA_23 
REMARK   12  A    between atoms: CA_23  and  CB_24 
REMARK   13  A    between atoms: CA_23  and  C_28 
REMARK   14  A    between atoms: CB_24  and  CG_25 
REMARK       I    between atoms: C_28  and  N_30 
REMARK   15  A    between atoms: N_30  and  CA_31 
REMARK   16  A    between atoms: CA_31  and  CB_32 
REMARK   17  A    between atoms: CA_31  and  C_39 
REMARK   18  A    between atoms: CB_32  and  CG_33 
REMARK   19  A    between atoms: CG_33  and  CD_34 
REMARK   20  A    between atoms: CD_34  and  NE_35 
REMARK       I    between atoms: C_39  and  N_41 
REMARK   21  A    between atoms: CA_42  and  C_46 
REMARK       I    between atoms: C_46  and  N_48 
REMARK   22  A    between atoms: N_48  and  CA_49 
REMARK   23  A    between atoms: CA_49  and  C_52 
REMARK   24  A    between atoms: CA_49  and  CB_50 
REMARK       I    between atoms: C_52  and  N_54 
REMARK   25  A    between atoms: N_54  and  CA_55 
REMARK   26  A    between atoms: CA_55  and  C_56 
REMARK       I    between atoms: C_56  and  N_58 
REMARK   27  A    between atoms: N_58  and  CA_59 
REMARK   28  A    between atoms: CA_59  and  C_60 
REMARK       I    between atoms: C_60  and  N_62 
REMARK   29  A    between atoms: N_62  and  CA_63 
REMARK   30  A    between atoms: CA_63  and  CB_64 
REMARK   31  A    between atoms: CA_63  and  C_66 
REMARK       I    between atoms: C_66  and  N_68 
REMARK   32  A    between atoms: N_68  and  CA_69 
REMARK   33  A    between atoms: CA_69  and  C_70 
ROOT
ATOM      1  CA  ARG     5       3.059 -25.793   6.143  1.00  0.00     0.185 C 
ENDROOT
BRANCH   1   2
ATOM      2  N   ARG     5       3.314 -24.379   6.475  1.00  0.00    -0.229 NA
ATOM      3  C   ASN     4       3.716 -23.923   7.652  1.00  0.00     0.275 C 
ATOM      4  O   ASN     4       3.687 -24.576   8.690  1.00  0.00    -0.268 OA
BRANCH   3   5
ATOM      5  CA  ASN     4       3.903 -22.392   7.664  1.00  0.00     0.196 C 
BRANCH   5   6
ATOM      6  N   ASN     4       2.603 -21.705   7.518  1.00  0.00    -0.228 NA
ATOM      7  C   LEU     3       1.703 -21.632   8.496  1.00  0.00     0.274 C 
ATOM      8  O   LEU     3       1.845 -22.111   9.625  1.00  0.00    -0.268 OA
BRANCH   7   9
ATOM      9  CA  LEU     3       0.447 -20.830   8.157  1.00  0.00     0.186 C 
BRANCH   9  10
ATOM     10  N   LEU     3      -0.535 -21.709   7.483  1.00  0.00    -0.229 NA
ATOM     11  C   GLY     2      -1.414 -21.258   6.584  1.00  0.00     0.277 C 
ATOM     12  O   GLY     2      -1.384 -20.125   6.128  1.00  0.00    -0.268 OA
BRANCH  11  13
ATOM     13  CA  GLY     2      -2.390 -22.306   6.008  1.00  0.00     0.218 C 
BRANCH  13  14
ATOM     14  N   GLY     2      -2.864 -23.387   6.905  1.00  0.00    -0.226 NA
ATOM     15  C   GLU     1      -3.655 -24.375   6.470  1.00  0.00     0.289 C 
ATOM     16  O   GLU     1      -3.884 -24.521   5.280  1.00  0.00    -0.268 OA
BRANCH  15  17
ATOM     17  CA  GLU     1      -4.211 -25.395   7.499  1.00  0.00     0.381 C 
ATOM     18  N   GLU     1      -4.305 -26.770   6.979  1.00  0.00     0.626 N 
BRANCH  17  19
ATOM     19  CB  GLU     1      -3.338 -25.335   8.770  1.00  0.00     0.060 C 
BRANCH  19  20
ATOM     20  CG  GLU     1      -2.602 -26.600   9.239  1.00  0.00     0.100 C 
BRANCH  20  21
ATOM     21  CD  GLU     1      -1.100 -26.568   8.918  1.00  0.00     0.185 C 
ATOM     22  OE1 GLU     1      -0.672 -25.661   8.182  1.00  0.00    -0.647 OA
ATOM     23  OE2 GLU     1      -0.377 -27.468   9.380  1.00  0.00    -0.647 OA
ENDBRANCH  20  21
ENDBRANCH  19  20
ENDBRANCH  17  19
ENDBRANCH  15  17
ENDBRANCH  13  14
ENDBRANCH  11  13
ENDBRANCH   9  10
BRANCH   9  24
ATOM     24  CB  LEU     3      -0.142 -20.264   9.455  1.00  0.00     0.034 C 
BRANCH  24  25
ATOM     25  CG  LEU     3      -0.406 -18.748   9.409  1.00  0.00     0.002 C 
ATOM     26  CD1 LEU     3       0.455 -18.115   8.317  1.00  0.00     0.000 C 
ATOM     27  CD2 LEU     3      -1.887 -18.451   9.147  1.00  0.00     0.000 C 
ENDBRANCH  24  25
ENDBRANCH   9  24
ENDBRANCH   7   9
ENDBRANCH   5   6
BRANCH   5  28
ATOM     28  CB  ASN     4       4.611 -21.922   8.947  1.00  0.00     0.126 C 
BRANCH  28  29
ATOM     29  CG  ASN     4       5.977 -21.254   8.691  1.00  0.00     0.276 C 
ATOM     30  ND2 ASN     4       5.998 -20.301   7.797  1.00  0.00    -0.107 N 
ATOM     31  OD1 ASN     4       6.989 -21.521   9.309  1.00  0.00    -0.269 OA
ENDBRANCH  28  29
ENDBRANCH   5  28
ENDBRANCH   3   5
ENDBRANCH   1   2
BRANCH   1  32
ATOM     32  CB  ARG     5       1.899 -25.910   5.148  1.00  0.00     0.036 C 
BRANCH  32  33
ATOM     33  CG  ARG     5       0.925 -27.046   5.464  1.00  0.00     0.029 C 
BRANCH  33  34
ATOM     34  CD  ARG     5      -0.347 -26.868   4.641  1.00  0.00     0.145 C 
BRANCH  34  35
ATOM     35  NE  ARG     5      -0.341 -25.594   3.880  1.00  0.00    -0.083 NA
ATOM     36  CZ  ARG     5      -1.290 -25.219   3.010  1.00  0.00     0.782 C 
ATOM     37  NH2 ARG     5      -1.349 -23.960   2.548  1.00  0.00     0.063 N 
ATOM     38  NH1 ARG     5      -2.277 -26.036   2.670  1.00  0.00     0.063 N 
ENDBRANCH  34  35
ENDBRANCH  33  34
ENDBRANCH  32  33
ENDBRANCH   1  32
BRANCH   1  39
ATOM     39  C   ARG     5       4.328 -26.415   5.531  1.00  0.00     0.256 C 
ATOM     40  O   ARG     5       5.068 -25.726   4.822  1.00  0.00    -0.270 OA
ATOM     41  N   PRO     6       4.626 -27.668   5.887  1.00  0.00    -0.312 N 
ATOM     42  CA  PRO     6       5.786 -28.426   5.367  1.00  0.00     0.165 C 
ATOM     43  CD  PRO     6       3.957 -28.438   6.959  1.00  0.00     0.105 C 
ATOM     44  CB  PRO     6       5.648 -29.822   5.978  1.00  0.00     0.034 C 
ATOM     45  CG  PRO     6       4.953 -29.547   7.304  1.00  0.00     0.027 C 
BRANCH  42  46
ATOM     46  C   PRO     6       5.769 -28.496   3.831  1.00  0.00     0.272 C 
ATOM     47  N   SER     7       6.906 -28.365   3.161  1.00  0.00    -0.226 NA
ATOM     48  O   PRO     6       4.694 -28.565   3.228  1.00  0.00    -0.269 OA
BRANCH  47  49
ATOM     49  CA  SER     7       8.254 -28.140   3.735  1.00  0.00     0.219 C 
BRANCH  49  50
ATOM     50  C   SER     7       8.480 -26.666   4.115  1.00  0.00     0.277 C 
ATOM     51  O   SER     7       8.013 -25.784   3.402  1.00  0.00    -0.268 OA
ATOM     52  N   GLY     8       8.970 -26.451   5.328  1.00  0.00    -0.226 NA
BRANCH  52  53
ATOM     53  CA  GLY     8       9.438 -25.108   5.762  1.00  0.00     0.218 C 
BRANCH  53  54
ATOM     54  C   GLY     8      10.806 -25.006   6.460  1.00  0.00     0.277 C 
ATOM     55  N   GLY     9      11.695 -25.979   6.211  1.00  0.00    -0.226 NA
ATOM     56  O   GLY     8      11.062 -24.047   7.170  1.00  0.00    -0.268 OA
BRANCH  55  57
ATOM     57  CA  GLY     9      13.030 -26.031   6.841  1.00  0.00     0.218 C 
BRANCH  57  58
ATOM     58  C   GLY     9      14.157 -25.919   5.787  1.00  0.00     0.277 C 
ATOM     59  O   GLY     9      14.784 -26.921   5.470  1.00  0.00    -0.268 OA
ATOM     60  N   CYS    10      14.579 -24.745   5.337  1.00  0.00    -0.228 NA
BRANCH  60  61
ATOM     61  CA  CYS    10      14.123 -23.394   5.747  1.00  0.00     0.198 C 
BRANCH  61  62
ATOM     62  CB  CYS    10      15.291 -22.426   5.970  1.00  0.00     0.103 C 
ATOM     63  SG  CYS    10      16.931 -22.901   5.326  1.00  0.00    -0.080 SA
ENDBRANCH  61  62
BRANCH  61  64
ATOM     64  C   CYS    10      13.238 -22.694   4.714  1.00  0.00     0.275 C 
ATOM     65  O   CYS    10      12.611 -23.371   3.901  1.00  0.00    -0.268 OA
ATOM     66  N   GLY    11      12.986 -21.426   4.998  1.00  0.00    -0.225 NA
BRANCH  66  67
ATOM     67  CA  GLY    11      12.815 -20.421   3.939  1.00  0.00     0.226 C 
BRANCH  67  68
ATOM     68  C   GLY    11      12.619 -19.093   4.687  1.00  0.00     0.211 C 
ATOM     69  O2  GLY    11      11.524 -18.521   4.491  1.00  0.00    -0.646 OA
ATOM     70  O1  GLY    11      13.366 -18.897   5.672  1.00  0.00    -0.646 OA
ENDBRANCH  67  68
ENDBRANCH  66  67
ENDBRANCH  61  64
ENDBRANCH  60  61
ENDBRANCH  57  58
ENDBRANCH  55  57
ENDBRANCH  53  54
ENDBRANCH  52  53
ENDBRANCH  49  50
BRANCH  49  71
ATOM     71  CB  SER     7       9.360 -28.532   2.753  1.00  0.00     0.216 C 
ATOM     72  OG  SER     7      10.356 -29.303   3.425  1.00  0.00    -0.218 OA
ENDBRANCH  49  71
ENDBRANCH  47  49
ENDBRANCH  42  46
ENDBRANCH   1  39
TORSDOF 33
ENDMDL
