MODEL 1
REMARK VINA RESULT:      -5.1      0.000      0.000
REMARK WARNING: 32 MAX_TORS EXCEEDED!!!
REMARK  42 active torsions:
REMARK  status: ('A' for Active; 'I' for Inactive)
REMARK    1  A    between atoms: CA_2  and  CB_3 
REMARK    2  A    between atoms: CA_2  and  C_11 
REMARK    3  A    between atoms: CB_3  and  CG_4 
REMARK       I    between atoms: C_11  and  N_13 
REMARK    4  A    between atoms: N_13  and  CA_14 
REMARK    5  A    between atoms: CA_14  and  CB_15 
REMARK    6  A    between atoms: CA_14  and  C_19 
REMARK    7  A    between atoms: CB_15  and  CG_16 
REMARK       I    between atoms: C_19  and  N_21 
REMARK    8  A    between atoms: CA_22  and  C_26 
REMARK       I    between atoms: C_26  and  N_28 
REMARK    9  A    between atoms: N_28  and  CA_29 
REMARK   10  A    between atoms: CA_29  and  C_35 
REMARK   11  A    between atoms: CA_29  and  CB_30 
REMARK   12  A    between atoms: CB_30  and  CG_31 
REMARK   13  A    between atoms: CG_31  and  CD_32 
REMARK       I    between atoms: C_35  and  N_37 
REMARK   14  A    between atoms: N_37  and  CA_38 
REMARK   15  A    between atoms: CA_38  and  CB_39 
REMARK   16  A    between atoms: CA_38  and  C_47 
REMARK   17  A    between atoms: CB_39  and  CG_40 
REMARK       I    between atoms: C_47  and  N_49 
REMARK   18  A    between atoms: N_49  and  CA_50 
REMARK   19  A    between atoms: CA_50  and  CB_51 
REMARK   20  A    between atoms: CA_50  and  C_58 
REMARK   21  A    between atoms: CB_51  and  CG_52 
REMARK   22  A    between atoms: CG_52  and  CD_53 
REMARK   23  A    between atoms: CD_53  and  NE_54 
REMARK       I    between atoms: C_58  and  N_60 
REMARK   24  A    between atoms: N_60  and  CA_61 
REMARK   25  A    between atoms: CA_61  and  C_66 
REMARK   26  A    between atoms: CA_61  and  CB_62 
REMARK   27  A    between atoms: CB_62  and  CG_63 
REMARK       I    between atoms: C_66  and  N_68 
REMARK   28  A    between atoms: N_68  and  CA_69 
REMARK   29  A    between atoms: CA_69  and  CB_70 
REMARK   30  A    between atoms: CA_69  and  C_77 
REMARK   31  A    between atoms: CB_70  and  CG_71 
REMARK       I    between atoms: C_77  and  N_79 
REMARK   32  A    between atoms: N_79  and  CA_80 
REMARK   33  A    between atoms: CA_80  and  CB_81 
REMARK   34  A    between atoms: CA_80  and  C_91 
REMARK   35  A    between atoms: CB_81  and  CG_82 
REMARK       I    between atoms: C_91  and  N_93 
REMARK   36  A    between atoms: N_93  and  CA_94 
REMARK   37  A    between atoms: CA_94  and  C_95 
REMARK       I    between atoms: C_95  and  N_97 
REMARK   38  A    between atoms: N_97  and  CA_98 
REMARK   39  A    between atoms: CA_98  and  C_101 
REMARK   40  A    between atoms: CA_98  and  CB_99 
REMARK       I    between atoms: C_101  and  N_103 
REMARK   41  A    between atoms: N_103  and  CA_104 
REMARK   42  A    between atoms: CA_104  and  C_105 
ROOT
ATOM      1  CA  ARG     6      -0.803 -18.525   5.886  1.00  0.00     0.186 C 
ENDROOT
BRANCH   1   2
ATOM      2  N   ARG     6      -2.138 -19.168   5.904  1.00  0.00    -0.229 NA
ATOM      3  C   TYR     5      -2.654 -19.781   4.830  1.00  0.00     0.275 C 
ATOM      4  O   TYR     5      -2.040 -19.875   3.767  1.00  0.00    -0.268 OA
BRANCH   3   5
ATOM      5  CA  TYR     5      -4.016 -20.472   5.004  1.00  0.00     0.191 C 
BRANCH   5   6
ATOM      6  N   TYR     5      -4.511 -20.461   6.405  1.00  0.00    -0.228 NA
ATOM      7  C   GLU     4      -4.118 -21.353   7.330  1.00  0.00     0.274 C 
ATOM      8  O   GLU     4      -3.217 -22.157   7.130  1.00  0.00    -0.268 OA
BRANCH   7   9
ATOM      9  CA  GLU     4      -4.624 -21.106   8.766  1.00  0.00     0.187 C 
BRANCH   9  10
ATOM     10  CB  GLU     4      -5.719 -22.127   9.115  1.00  0.00     0.045 C 
BRANCH  10  11
ATOM     11  CG  GLU     4      -5.279 -23.337   9.968  1.00  0.00     0.100 C 
BRANCH  11  12
ATOM     12  CD  GLU     4      -5.713 -24.692   9.410  1.00  0.00     0.185 C 
ATOM     13  OE1 GLU     4      -5.255 -25.027   8.286  1.00  0.00    -0.647 OA
ATOM     14  OE2 GLU     4      -6.798 -25.147   9.824  1.00  0.00    -0.647 OA
ENDBRANCH  11  12
ENDBRANCH  10  11
ENDBRANCH   9  10
BRANCH   9  15
ATOM     15  N   GLU     4      -5.164 -19.748   8.968  1.00  0.00    -0.229 NA
ATOM     16  C   PRO     3      -4.494 -18.625   9.197  1.00  0.00     0.272 C 
ATOM     17  O   PRO     3      -3.305 -18.476   8.908  1.00  0.00    -0.269 OA
BRANCH  16  18
ATOM     18  CA  PRO     3      -5.356 -17.373   9.366  1.00  0.00     0.165 C 
ATOM     19  N   PRO     3      -6.512 -17.285   8.447  1.00  0.00    -0.312 N 
ATOM     20  CD  PRO     3      -7.692 -16.758   9.179  1.00  0.00     0.105 C 
ATOM     21  C   ASP     2      -6.437 -17.506   7.122  1.00  0.00     0.257 C 
ATOM     22  CG  PRO     3      -7.130 -16.321  10.541  1.00  0.00     0.027 C 
ATOM     23  CB  PRO     3      -5.952 -17.265  10.767  1.00  0.00     0.034 C 
ATOM     24  O   ASP     2      -5.333 -17.588   6.562  1.00  0.00    -0.270 OA
BRANCH  21  25
ATOM     25  CA  ASP     2      -7.693 -17.302   6.245  1.00  0.00     0.195 C 
BRANCH  25  26
ATOM     26  CB  ASP     2      -7.911 -18.329   5.104  1.00  0.00     0.132 C 
BRANCH  26  27
ATOM     27  CG  ASP     2      -9.331 -18.922   5.178  1.00  0.00     0.188 C 
ATOM     28  OD2 ASP     2     -10.116 -18.348   5.975  1.00  0.00    -0.647 OA
ATOM     29  OD1 ASP     2      -9.441 -20.152   4.951  1.00  0.00    -0.647 OA
ENDBRANCH  26  27
ENDBRANCH  25  26
BRANCH  25  30
ATOM     30  N   ASP     2      -7.659 -16.021   5.519  1.00  0.00    -0.228 NA
ATOM     31  C   TYR     1      -8.593 -15.099   5.510  1.00  0.00     0.289 C 
ATOM     32  O   TYR     1      -9.615 -15.045   6.202  1.00  0.00    -0.268 OA
BRANCH  31  33
ATOM     33  CA  TYR     1      -8.313 -14.011   4.478  1.00  0.00     0.385 C 
ATOM     34  N   TYR     1      -6.890 -13.646   4.584  1.00  0.00     0.626 N 
BRANCH  33  35
ATOM     35  CB  TYR     1      -8.670 -14.581   3.108  1.00  0.00     0.075 C 
BRANCH  35  36
ATOM     36  CG  TYR     1     -10.114 -14.268   2.685  1.00  0.00    -0.019 A 
ATOM     37  CD2 TYR     1     -10.843 -13.260   3.295  1.00  0.00    -0.002 A 
ATOM     38  CE2 TYR     1     -12.092 -12.908   2.806  1.00  0.00     0.027 A 
ATOM     39  CZ  TYR     1     -12.604 -13.585   1.699  1.00  0.00     0.131 A 
ATOM     40  CE1 TYR     1     -11.888 -14.617   1.121  1.00  0.00     0.027 A 
ATOM     41  OH  TYR     1     -13.723 -13.142   1.091  1.00  0.00    -0.190 OA
ATOM     42  CD1 TYR     1     -10.640 -14.969   1.610  1.00  0.00    -0.002 A 
ENDBRANCH  35  36
ENDBRANCH  33  35
ENDBRANCH  31  33
ENDBRANCH  25  30
ENDBRANCH  21  25
ENDBRANCH  16  18
ENDBRANCH   9  15
ENDBRANCH   7   9
ENDBRANCH   5   6
BRANCH   5  43
ATOM     43  CB  TYR     5      -5.069 -19.856   4.068  1.00  0.00     0.060 C 
BRANCH  43  44
ATOM     44  CG  TYR     5      -5.582 -20.862   3.024  1.00  0.00    -0.020 A 
ATOM     45  CD2 TYR     5      -4.753 -21.306   2.002  1.00  0.00    -0.002 A 
ATOM     46  CE2 TYR     5      -5.224 -22.222   1.067  1.00  0.00     0.027 A 
ATOM     47  CZ  TYR     5      -6.524 -22.695   1.154  1.00  0.00     0.131 A 
ATOM     48  CE1 TYR     5      -7.355 -22.270   2.185  1.00  0.00     0.027 A 
ATOM     49  OH  TYR     5      -7.032 -23.475   0.174  1.00  0.00    -0.190 OA
ATOM     50  CD1 TYR     5      -6.883 -21.344   3.116  1.00  0.00    -0.002 A 
ENDBRANCH  43  44
ENDBRANCH   5  43
ENDBRANCH   3   5
ENDBRANCH   1   2
BRANCH   1  51
ATOM     51  CB  ARG     6      -0.682 -17.382   6.889  1.00  0.00     0.036 C 
BRANCH  51  52
ATOM     52  CG  ARG     6      -1.332 -16.079   6.416  1.00  0.00     0.029 C 
BRANCH  52  53
ATOM     53  CD  ARG     6      -2.373 -15.607   7.427  1.00  0.00     0.145 C 
BRANCH  53  54
ATOM     54  NE  ARG     6      -1.760 -15.368   8.744  1.00  0.00    -0.083 NA
ATOM     55  CZ  ARG     6      -1.605 -14.163   9.326  1.00  0.00     0.782 C 
ATOM     56  NH2 ARG     6      -0.958 -14.050  10.488  1.00  0.00     0.063 N 
ATOM     57  NH1 ARG     6      -2.018 -13.062   8.709  1.00  0.00     0.063 N 
ENDBRANCH  53  54
ENDBRANCH  52  53
ENDBRANCH  51  52
ENDBRANCH   1  51
BRANCH   1  58
ATOM     58  C   ARG     6       0.327 -19.511   6.207  1.00  0.00     0.274 C 
ATOM     59  N   ASN     7      -0.052 -20.675   6.726  1.00  0.00    -0.228 NA
ATOM     60  O   ARG     6       1.493 -19.184   5.978  1.00  0.00    -0.268 OA
BRANCH  59  61
ATOM     61  CA  ASN     7       0.882 -21.785   7.008  1.00  0.00     0.196 C 
BRANCH  61  62
ATOM     62  C   ASN     7       0.791 -22.888   5.936  1.00  0.00     0.275 C 
ATOM     63  N   PHE     8      -0.437 -23.229   5.518  1.00  0.00    -0.228 NA
ATOM     64  O   ASN     7       1.788 -23.098   5.272  1.00  0.00    -0.268 OA
BRANCH  63  65
ATOM     65  CA  PHE     8      -0.724 -24.204   4.437  1.00  0.00     0.191 C 
BRANCH  65  66
ATOM     66  CB  PHE     8      -0.638 -25.617   5.028  1.00  0.00     0.060 C 
BRANCH  66  67
ATOM     67  CG  PHE     8       0.235 -26.594   4.218  1.00  0.00    -0.020 A 
ATOM     68  CD1 PHE     8       0.623 -27.803   4.778  1.00  0.00    -0.004 A 
ATOM     69  CE1 PHE     8       1.496 -28.641   4.085  1.00  0.00    -0.000 A 
ATOM     70  CZ  PHE     8       1.959 -28.268   2.833  1.00  0.00    -0.000 A 
ATOM     71  CE2 PHE     8       1.560 -27.062   2.264  1.00  0.00    -0.000 A 
ATOM     72  CD2 PHE     8       0.687 -26.225   2.958  1.00  0.00    -0.004 A 
ENDBRANCH  66  67
ENDBRANCH  65  66
BRANCH  65  73
ATOM     73  C   PHE     8      -2.059 -23.977   3.692  1.00  0.00     0.275 C 
ATOM     74  N   TRP     9      -3.005 -24.899   3.875  1.00  0.00    -0.228 NA
ATOM     75  O   PHE     8      -2.148 -23.138   2.792  1.00  0.00    -0.268 OA
BRANCH  74  76
ATOM     76  CA  TRP     9      -4.373 -24.745   3.321  1.00  0.00     0.191 C 
BRANCH  76  77
ATOM     77  CB  TRP     9      -4.675 -25.942   2.405  1.00  0.00     0.062 C 
BRANCH  77  78
ATOM     78  CG  TRP     9      -3.422 -26.549   1.775  1.00  0.00     0.001 A 
ATOM     79  CD1 TRP     9      -2.920 -26.243   0.582  1.00  0.00     0.095 A 
ATOM     80  NE1 TRP     9      -2.020 -27.151   0.229  1.00  0.00    -0.244 NA
ATOM     81  CE2 TRP     9      -1.901 -28.055   1.190  1.00  0.00     0.081 A 
ATOM     82  CD2 TRP     9      -2.792 -27.716   2.196  1.00  0.00     0.015 A 
ATOM     83  CZ2 TRP     9      -1.176 -29.243   1.288  1.00  0.00     0.019 A 
ATOM     84  CE3 TRP     9      -2.981 -28.550   3.288  1.00  0.00     0.001 A 
ATOM     85  CZ3 TRP     9      -2.269 -29.741   3.381  1.00  0.00     0.000 A 
ATOM     86  CH2 TRP     9      -1.353 -30.073   2.385  1.00  0.00     0.002 A 
ENDBRANCH  77  78
ENDBRANCH  76  77
BRANCH  76  87
ATOM     87  C   TRP     9      -5.477 -24.549   4.385  1.00  0.00     0.275 C 
ATOM     88  O   TRP     9      -5.363 -23.699   5.263  1.00  0.00    -0.268 OA
ATOM     89  N   GLY    10      -6.581 -25.277   4.228  1.00  0.00    -0.226 NA
BRANCH  89  90
ATOM     90  CA  GLY    10      -7.771 -25.200   5.120  1.00  0.00     0.218 C 
BRANCH  90  91
ATOM     91  C   GLY    10      -7.867 -26.268   6.222  1.00  0.00     0.277 C 
ATOM     92  N   CYS    11      -7.294 -27.434   5.929  1.00  0.00    -0.228 NA
ATOM     93  O   GLY    10      -8.574 -26.085   7.207  1.00  0.00    -0.268 OA
BRANCH  92  94
ATOM     94  CA  CYS    11      -7.216 -28.624   6.806  1.00  0.00     0.198 C 
BRANCH  94  95
ATOM     95  C   CYS    11      -6.013 -28.442   7.752  1.00  0.00     0.275 C 
ATOM     96  O   CYS    11      -4.882 -28.423   7.281  1.00  0.00    -0.268 OA
ATOM     97  N   GLY    12      -6.276 -28.516   9.049  1.00  0.00    -0.225 NA
BRANCH  97  98
ATOM     98  CA  GLY    12      -5.242 -28.381  10.086  1.00  0.00     0.226 C 
BRANCH  98  99
ATOM     99  C   GLY    12      -5.241 -29.675  10.932  1.00  0.00     0.211 C 
ATOM    100  O1  GLY    12      -5.858 -30.661  10.455  1.00  0.00    -0.646 OA
ATOM    101  O2  GLY    12      -4.607 -29.667  12.003  1.00  0.00    -0.646 OA
ENDBRANCH  98  99
ENDBRANCH  97  98
ENDBRANCH  94  95
BRANCH  94 102
ATOM    102  CB  CYS    11      -6.904 -29.868   5.978  1.00  0.00     0.103 C 
ATOM    103  SG  CYS    11      -6.944 -31.467   6.875  1.00  0.00    -0.080 SA
ENDBRANCH  94 102
ENDBRANCH  92  94
ENDBRANCH  90  91
ENDBRANCH  89  90
ENDBRANCH  76  87
ENDBRANCH  74  76
ENDBRANCH  65  73
ENDBRANCH  63  65
ENDBRANCH  61  62
BRANCH  61 104
ATOM    104  CB  ASN     7       0.651 -22.365   8.409  1.00  0.00     0.126 C 
BRANCH 104 105
ATOM    105  CG  ASN     7       1.433 -21.666   9.536  1.00  0.00     0.276 C 
ATOM    106  ND2 ASN     7       0.713 -21.180  10.522  1.00  0.00    -0.107 N 
ATOM    107  OD1 ASN     7       2.627 -21.400   9.503  1.00  0.00    -0.269 OA
ENDBRANCH 104 105
ENDBRANCH  61 104
ENDBRANCH  59  61
ENDBRANCH   1  58
TORSDOF 42
ENDMDL
MODEL 2
REMARK VINA RESULT:      -5.1      4.909     12.015
REMARK WARNING: 32 MAX_TORS EXCEEDED!!!
REMARK  42 active torsions:
REMARK  status: ('A' for Active; 'I' for Inactive)
REMARK    1  A    between atoms: CA_2  and  CB_3 
REMARK    2  A    between atoms: CA_2  and  C_11 
REMARK    3  A    between atoms: CB_3  and  CG_4 
REMARK       I    between atoms: C_11  and  N_13 
REMARK    4  A    between atoms: N_13  and  CA_14 
REMARK    5  A    between atoms: CA_14  and  CB_15 
REMARK    6  A    between atoms: CA_14  and  C_19 
REMARK    7  A    between atoms: CB_15  and  CG_16 
REMARK       I    between atoms: C_19  and  N_21 
REMARK    8  A    between atoms: CA_22  and  C_26 
REMARK       I    between atoms: C_26  and  N_28 
REMARK    9  A    between atoms: N_28  and  CA_29 
REMARK   10  A    between atoms: CA_29  and  C_35 
REMARK   11  A    between atoms: CA_29  and  CB_30 
REMARK   12  A    between atoms: CB_30  and  CG_31 
REMARK   13  A    between atoms: CG_31  and  CD_32 
REMARK       I    between atoms: C_35  and  N_37 
REMARK   14  A    between atoms: N_37  and  CA_38 
REMARK   15  A    between atoms: CA_38  and  CB_39 
REMARK   16  A    between atoms: CA_38  and  C_47 
REMARK   17  A    between atoms: CB_39  and  CG_40 
REMARK       I    between atoms: C_47  and  N_49 
REMARK   18  A    between atoms: N_49  and  CA_50 
REMARK   19  A    between atoms: CA_50  and  CB_51 
REMARK   20  A    between atoms: CA_50  and  C_58 
REMARK   21  A    between atoms: CB_51  and  CG_52 
REMARK   22  A    between atoms: CG_52  and  CD_53 
REMARK   23  A    between atoms: CD_53  and  NE_54 
REMARK       I    between atoms: C_58  and  N_60 
REMARK   24  A    between atoms: N_60  and  CA_61 
REMARK   25  A    between atoms: CA_61  and  C_66 
REMARK   26  A    between atoms: CA_61  and  CB_62 
REMARK   27  A    between atoms: CB_62  and  CG_63 
REMARK       I    between atoms: C_66  and  N_68 
REMARK   28  A    between atoms: N_68  and  CA_69 
REMARK   29  A    between atoms: CA_69  and  CB_70 
REMARK   30  A    between atoms: CA_69  and  C_77 
REMARK   31  A    between atoms: CB_70  and  CG_71 
REMARK       I    between atoms: C_77  and  N_79 
REMARK   32  A    between atoms: N_79  and  CA_80 
REMARK   33  A    between atoms: CA_80  and  CB_81 
REMARK   34  A    between atoms: CA_80  and  C_91 
REMARK   35  A    between atoms: CB_81  and  CG_82 
REMARK       I    between atoms: C_91  and  N_93 
REMARK   36  A    between atoms: N_93  and  CA_94 
REMARK   37  A    between atoms: CA_94  and  C_95 
REMARK       I    between atoms: C_95  and  N_97 
REMARK   38  A    between atoms: N_97  and  CA_98 
REMARK   39  A    between atoms: CA_98  and  C_101 
REMARK   40  A    between atoms: CA_98  and  CB_99 
REMARK       I    between atoms: C_101  and  N_103 
REMARK   41  A    between atoms: N_103  and  CA_104 
REMARK   42  A    between atoms: CA_104  and  C_105 
ROOT
ATOM      1  CA  ARG     6      -3.136 -23.085   2.518  1.00  0.00     0.186 C 
ENDROOT
BRANCH   1   2
ATOM      2  N   ARG     6      -2.896 -23.190   3.977  1.00  0.00    -0.229 NA
ATOM      3  C   TYR     5      -2.042 -22.386   4.624  1.00  0.00     0.275 C 
ATOM      4  O   TYR     5      -1.421 -21.489   4.053  1.00  0.00    -0.268 OA
BRANCH   3   5
ATOM      5  CA  TYR     5      -1.943 -22.552   6.149  1.00  0.00     0.191 C 
BRANCH   5   6
ATOM      6  N   TYR     5      -1.067 -21.543   6.799  1.00  0.00    -0.228 NA
ATOM      7  C   GLU     4      -0.169 -21.853   7.749  1.00  0.00     0.274 C 
ATOM      8  O   GLU     4       0.097 -23.009   8.053  1.00  0.00    -0.268 OA
BRANCH   7   9
ATOM      9  CA  GLU     4       0.752 -20.705   8.211  1.00  0.00     0.187 C 
BRANCH   9  10
ATOM     10  CB  GLU     4       0.952 -19.703   7.063  1.00  0.00     0.045 C 
BRANCH  10  11
ATOM     11  CG  GLU     4       0.389 -18.282   7.290  1.00  0.00     0.100 C 
BRANCH  11  12
ATOM     12  CD  GLU     4      -0.418 -17.730   6.115  1.00  0.00     0.185 C 
ATOM     13  OE1 GLU     4      -0.870 -16.561   6.224  1.00  0.00    -0.647 OA
ATOM     14  OE2 GLU     4      -0.969 -18.567   5.371  1.00  0.00    -0.647 OA
ENDBRANCH  11  12
ENDBRANCH  10  11
ENDBRANCH   9  10
BRANCH   9  15
ATOM     15  N   GLU     4       2.076 -21.169   8.668  1.00  0.00    -0.229 NA
ATOM     16  C   PRO     3       2.922 -20.555   9.486  1.00  0.00     0.272 C 
ATOM     17  O   PRO     3       2.579 -19.679  10.281  1.00  0.00    -0.269 OA
BRANCH  16  18
ATOM     18  CA  PRO     3       4.226 -21.307   9.762  1.00  0.00     0.165 C 
ATOM     19  N   PRO     3       5.455 -20.501   9.600  1.00  0.00    -0.312 N 
ATOM     20  CD  PRO     3       6.416 -20.834  10.682  1.00  0.00     0.105 C 
ATOM     21  C   ASP     2       5.702 -19.714   8.537  1.00  0.00     0.257 C 
ATOM     22  CG  PRO     3       5.790 -22.048  11.386  1.00  0.00     0.027 C 
ATOM     23  CB  PRO     3       4.290 -21.848  11.189  1.00  0.00     0.034 C 
ATOM     24  O   ASP     2       4.992 -19.789   7.523  1.00  0.00    -0.270 OA
BRANCH  21  25
ATOM     25  CA  ASP     2       7.059 -18.983   8.432  1.00  0.00     0.195 C 
BRANCH  25  26
ATOM     26  CB  ASP     2       7.091 -17.512   8.923  1.00  0.00     0.132 C 
BRANCH  26  27
ATOM     27  CG  ASP     2       8.204 -17.318   9.969  1.00  0.00     0.188 C 
ATOM     28  OD2 ASP     2       8.679 -16.156  10.045  1.00  0.00    -0.647 OA
ATOM     29  OD1 ASP     2       8.923 -18.317  10.220  1.00  0.00    -0.647 OA
ENDBRANCH  26  27
ENDBRANCH  25  26
BRANCH  25  30
ATOM     30  N   ASP     2       7.517 -18.862   7.037  1.00  0.00    -0.228 NA
ATOM     31  C   TYR     1       8.730 -19.082   6.587  1.00  0.00     0.289 C 
ATOM     32  O   TYR     1       9.693 -19.558   7.197  1.00  0.00    -0.268 OA
BRANCH  31  33
ATOM     33  CA  TYR     1       8.887 -18.649   5.133  1.00  0.00     0.385 C 
ATOM     34  N   TYR     1       7.769 -19.224   4.368  1.00  0.00     0.626 N 
BRANCH  33  35
ATOM     35  CB  TYR     1       8.886 -17.122   5.110  1.00  0.00     0.075 C 
BRANCH  35  36
ATOM     36  CG  TYR     1       9.229 -16.541   3.729  1.00  0.00    -0.019 A 
ATOM     37  CD2 TYR     1       9.477 -17.364   2.641  1.00  0.00    -0.002 A 
ATOM     38  CE2 TYR     1       9.650 -16.817   1.379  1.00  0.00     0.027 A 
ATOM     39  CZ  TYR     1       9.578 -15.433   1.221  1.00  0.00     0.131 A 
ATOM     40  CE1 TYR     1       9.371 -14.616   2.318  1.00  0.00     0.027 A 
ATOM     41  OH  TYR     1       9.555 -14.891  -0.013  1.00  0.00    -0.190 OA
ATOM     42  CD1 TYR     1       9.198 -15.163   3.581  1.00  0.00    -0.002 A 
ENDBRANCH  35  36
ENDBRANCH  33  35
ENDBRANCH  31  33
ENDBRANCH  25  30
ENDBRANCH  21  25
ENDBRANCH  16  18
ENDBRANCH   9  15
ENDBRANCH   7   9
ENDBRANCH   5   6
BRANCH   5  43
ATOM     43  CB  TYR     5      -3.338 -22.534   6.795  1.00  0.00     0.060 C 
BRANCH  43  44
ATOM     44  CG  TYR     5      -3.433 -23.479   8.005  1.00  0.00    -0.020 A 
ATOM     45  CD2 TYR     5      -3.560 -24.850   7.822  1.00  0.00    -0.002 A 
ATOM     46  CE2 TYR     5      -3.638 -25.698   8.922  1.00  0.00     0.027 A 
ATOM     47  CZ  TYR     5      -3.589 -25.176  10.205  1.00  0.00     0.131 A 
ATOM     48  CE1 TYR     5      -3.444 -23.806  10.397  1.00  0.00     0.027 A 
ATOM     49  OH  TYR     5      -3.803 -25.973  11.274  1.00  0.00    -0.190 OA
ATOM     50  CD1 TYR     5      -3.375 -22.957   9.292  1.00  0.00    -0.002 A 
ENDBRANCH  43  44
ENDBRANCH   5  43
ENDBRANCH   3   5
ENDBRANCH   1   2
BRANCH   1  51
ATOM     51  CB  ARG     6      -2.191 -23.957   1.698  1.00  0.00     0.036 C 
BRANCH  51  52
ATOM     52  CG  ARG     6      -2.011 -25.368   2.262  1.00  0.00     0.029 C 
BRANCH  52  53
ATOM     53  CD  ARG     6      -0.528 -25.713   2.367  1.00  0.00     0.145 C 
BRANCH  53  54
ATOM     54  NE  ARG     6      -0.116 -25.850   3.774  1.00  0.00    -0.083 NA
ATOM     55  CZ  ARG     6       0.624 -24.961   4.462  1.00  0.00     0.782 C 
ATOM     56  NH2 ARG     6       1.012 -25.224   5.712  1.00  0.00     0.063 N 
ATOM     57  NH1 ARG     6       1.051 -23.848   3.876  1.00  0.00     0.063 N 
ENDBRANCH  53  54
ENDBRANCH  52  53
ENDBRANCH  51  52
ENDBRANCH   1  51
BRANCH   1  58
ATOM     58  C   ARG     6      -4.562 -23.494   2.127  1.00  0.00     0.274 C 
ATOM     59  N   ASN     7      -5.215 -24.233   3.019  1.00  0.00    -0.228 NA
ATOM     60  O   ARG     6      -5.013 -23.132   1.039  1.00  0.00    -0.268 OA
BRANCH  59  61
ATOM     61  CA  ASN     7      -6.627 -24.638   2.862  1.00  0.00     0.196 C 
BRANCH  61  62
ATOM     62  C   ASN     7      -7.413 -24.476   4.178  1.00  0.00     0.275 C 
ATOM     63  N   PHE     8      -7.244 -25.428   5.108  1.00  0.00    -0.228 NA
ATOM     64  O   ASN     7      -7.809 -23.360   4.453  1.00  0.00    -0.268 OA
BRANCH  63  65
ATOM     65  CA  PHE     8      -7.844 -25.405   6.464  1.00  0.00     0.191 C 
BRANCH  65  66
ATOM     66  CB  PHE     8      -7.211 -24.248   7.250  1.00  0.00     0.060 C 
BRANCH  66  67
ATOM     67  CG  PHE     8      -7.229 -24.432   8.779  1.00  0.00    -0.020 A 
ATOM     68  CD1 PHE     8      -7.081 -23.330   9.611  1.00  0.00    -0.004 A 
ATOM     69  CE1 PHE     8      -6.995 -23.510  10.991  1.00  0.00    -0.000 A 
ATOM     70  CZ  PHE     8      -7.074 -24.786  11.526  1.00  0.00    -0.000 A 
ATOM     71  CE2 PHE     8      -7.236 -25.889  10.695  1.00  0.00    -0.000 A 
ATOM     72  CD2 PHE     8      -7.322 -25.710   9.314  1.00  0.00    -0.004 A 
ENDBRANCH  66  67
ENDBRANCH  65  66
BRANCH  65  73
ATOM     73  C   PHE     8      -9.388 -25.338   6.495  1.00  0.00     0.275 C 
ATOM     74  N   TRP     9      -9.924 -24.234   7.017  1.00  0.00    -0.228 NA
ATOM     75  O   PHE     8     -10.069 -26.345   6.287  1.00  0.00    -0.268 OA
BRANCH  74  76
ATOM     76  CA  TRP     9     -11.386 -23.983   6.997  1.00  0.00     0.191 C 
BRANCH  76  77
ATOM     77  CB  TRP     9     -11.809 -23.407   8.358  1.00  0.00     0.062 C 
BRANCH  77  78
ATOM     78  CG  TRP     9     -11.280 -24.213   9.544  1.00  0.00     0.001 A 
ATOM     79  CD1 TRP     9     -11.477 -25.511   9.755  1.00  0.00     0.095 A 
ATOM     80  NE1 TRP     9     -11.142 -25.818  11.002  1.00  0.00    -0.244 NA
ATOM     81  CE2 TRP     9     -10.702 -24.734  11.622  1.00  0.00     0.081 A 
ATOM     82  CD2 TRP     9     -10.786 -23.677  10.728  1.00  0.00     0.015 A 
ATOM     83  CZ2 TRP     9     -10.315 -24.488  12.939  1.00  0.00     0.019 A 
ATOM     84  CE3 TRP     9     -10.506 -22.380  11.133  1.00  0.00     0.001 A 
ATOM     85  CZ3 TRP     9     -10.134 -22.131  12.450  1.00  0.00     0.000 A 
ATOM     86  CH2 TRP     9     -10.022 -23.194  13.344  1.00  0.00     0.002 A 
ENDBRANCH  77  78
ENDBRANCH  76  77
BRANCH  76  87
ATOM     87  C   TRP     9     -11.869 -23.096   5.827  1.00  0.00     0.275 C 
ATOM     88  O   TRP     9     -12.660 -23.527   4.994  1.00  0.00    -0.268 OA
ATOM     89  N   GLY    10     -11.458 -21.829   5.842  1.00  0.00    -0.226 NA
BRANCH  89  90
ATOM     90  CA  GLY    10     -11.849 -20.809   4.830  1.00  0.00     0.218 C 
BRANCH  90  91
ATOM     91  C   GLY    10     -10.716 -19.931   4.273  1.00  0.00     0.277 C 
ATOM     92  N   CYS    11      -9.942 -19.358   5.195  1.00  0.00    -0.228 NA
ATOM     93  O   GLY    10     -10.666 -19.661   3.079  1.00  0.00    -0.268 OA
BRANCH  92  94
ATOM     94  CA  CYS    11      -8.772 -18.487   4.946  1.00  0.00     0.198 C 
BRANCH  94  95
ATOM     95  C   CYS    11      -7.497 -19.309   5.220  1.00  0.00     0.275 C 
ATOM     96  O   CYS    11      -6.980 -19.253   6.331  1.00  0.00    -0.268 OA
ATOM     97  N   GLY    12      -6.930 -19.873   4.164  1.00  0.00    -0.225 NA
BRANCH  97  98
ATOM     98  CA  GLY    12      -5.700 -20.677   4.248  1.00  0.00     0.226 C 
BRANCH  98  99
ATOM     99  C   GLY    12      -4.497 -19.735   4.007  1.00  0.00     0.211 C 
ATOM    100  O1  GLY    12      -4.170 -19.534   2.810  1.00  0.00    -0.646 OA
ATOM    101  O2  GLY    12      -3.959 -19.216   5.002  1.00  0.00    -0.646 OA
ENDBRANCH  98  99
ENDBRANCH  97  98
ENDBRANCH  94  95
BRANCH  94 102
ATOM    102  CB  CYS    11      -8.747 -17.340   5.953  1.00  0.00     0.103 C 
ATOM    103  SG  CYS    11      -8.601 -15.651   5.251  1.00  0.00    -0.080 SA
ENDBRANCH  94 102
ENDBRANCH  92  94
ENDBRANCH  90  91
ENDBRANCH  89  90
ENDBRANCH  76  87
ENDBRANCH  74  76
ENDBRANCH  65  73
ENDBRANCH  63  65
ENDBRANCH  61  62
BRANCH  61 104
ATOM    104  CB  ASN     7      -6.739 -26.074   2.334  1.00  0.00     0.126 C 
BRANCH 104 105
ATOM    105  CG  ASN     7      -5.417 -26.863   2.321  1.00  0.00     0.276 C 
ATOM    106  ND2 ASN     7      -4.906 -27.113   1.137  1.00  0.00    -0.107 N 
ATOM    107  OD1 ASN     7      -4.906 -27.395   3.299  1.00  0.00    -0.269 OA
ENDBRANCH 104 105
ENDBRANCH  61 104
ENDBRANCH  59  61
ENDBRANCH   1  58
TORSDOF 42
ENDMDL
MODEL 3
REMARK VINA RESULT:      -5.1      4.120      9.791
REMARK WARNING: 32 MAX_TORS EXCEEDED!!!
REMARK  42 active torsions:
REMARK  status: ('A' for Active; 'I' for Inactive)
REMARK    1  A    between atoms: CA_2  and  CB_3 
REMARK    2  A    between atoms: CA_2  and  C_11 
REMARK    3  A    between atoms: CB_3  and  CG_4 
REMARK       I    between atoms: C_11  and  N_13 
REMARK    4  A    between atoms: N_13  and  CA_14 
REMARK    5  A    between atoms: CA_14  and  CB_15 
REMARK    6  A    between atoms: CA_14  and  C_19 
REMARK    7  A    between atoms: CB_15  and  CG_16 
REMARK       I    between atoms: C_19  and  N_21 
REMARK    8  A    between atoms: CA_22  and  C_26 
REMARK       I    between atoms: C_26  and  N_28 
REMARK    9  A    between atoms: N_28  and  CA_29 
REMARK   10  A    between atoms: CA_29  and  C_35 
REMARK   11  A    between atoms: CA_29  and  CB_30 
REMARK   12  A    between atoms: CB_30  and  CG_31 
REMARK   13  A    between atoms: CG_31  and  CD_32 
REMARK       I    between atoms: C_35  and  N_37 
REMARK   14  A    between atoms: N_37  and  CA_38 
REMARK   15  A    between atoms: CA_38  and  CB_39 
REMARK   16  A    between atoms: CA_38  and  C_47 
REMARK   17  A    between atoms: CB_39  and  CG_40 
REMARK       I    between atoms: C_47  and  N_49 
REMARK   18  A    between atoms: N_49  and  CA_50 
REMARK   19  A    between atoms: CA_50  and  CB_51 
REMARK   20  A    between atoms: CA_50  and  C_58 
REMARK   21  A    between atoms: CB_51  and  CG_52 
REMARK   22  A    between atoms: CG_52  and  CD_53 
REMARK   23  A    between atoms: CD_53  and  NE_54 
REMARK       I    between atoms: C_58  and  N_60 
REMARK   24  A    between atoms: N_60  and  CA_61 
REMARK   25  A    between atoms: CA_61  and  C_66 
REMARK   26  A    between atoms: CA_61  and  CB_62 
REMARK   27  A    between atoms: CB_62  and  CG_63 
REMARK       I    between atoms: C_66  and  N_68 
REMARK   28  A    between atoms: N_68  and  CA_69 
REMARK   29  A    between atoms: CA_69  and  CB_70 
REMARK   30  A    between atoms: CA_69  and  C_77 
REMARK   31  A    between atoms: CB_70  and  CG_71 
REMARK       I    between atoms: C_77  and  N_79 
REMARK   32  A    between atoms: N_79  and  CA_80 
REMARK   33  A    between atoms: CA_80  and  CB_81 
REMARK   34  A    between atoms: CA_80  and  C_91 
REMARK   35  A    between atoms: CB_81  and  CG_82 
REMARK       I    between atoms: C_91  and  N_93 
REMARK   36  A    between atoms: N_93  and  CA_94 
REMARK   37  A    between atoms: CA_94  and  C_95 
REMARK       I    between atoms: C_95  and  N_97 
REMARK   38  A    between atoms: N_97  and  CA_98 
REMARK   39  A    between atoms: CA_98  and  C_101 
REMARK   40  A    between atoms: CA_98  and  CB_99 
REMARK       I    between atoms: C_101  and  N_103 
REMARK   41  A    between atoms: N_103  and  CA_104 
REMARK   42  A    between atoms: CA_104  and  C_105 
ROOT
ATOM      1  CA  ARG     6      -9.570 -16.355   5.057  1.00  0.00     0.186 C 
ENDROOT
BRANCH   1   2
ATOM      2  N   ARG     6     -10.182 -17.448   5.848  1.00  0.00    -0.229 NA
ATOM      3  C   TYR     5     -10.592 -18.595   5.291  1.00  0.00     0.275 C 
ATOM      4  O   TYR     5     -10.461 -18.827   4.089  1.00  0.00    -0.268 OA
BRANCH   3   5
ATOM      5  CA  TYR     5     -11.141 -19.677   6.236  1.00  0.00     0.191 C 
BRANCH   5   6
ATOM      6  N   TYR     5     -10.810 -21.061   5.808  1.00  0.00    -0.228 NA
ATOM      7  C   GLU     4     -11.743 -21.977   5.502  1.00  0.00     0.274 C 
ATOM      8  O   GLU     4     -12.933 -21.704   5.414  1.00  0.00    -0.268 OA
BRANCH   7   9
ATOM      9  CA  GLU     4     -11.219 -23.316   4.942  1.00  0.00     0.187 C 
BRANCH   9  10
ATOM     10  CB  GLU     4     -12.395 -24.276   4.703  1.00  0.00     0.045 C 
BRANCH  10  11
ATOM     11  CG  GLU     4     -12.340 -25.624   5.455  1.00  0.00     0.100 C 
BRANCH  11  12
ATOM     12  CD  GLU     4     -13.664 -26.388   5.475  1.00  0.00     0.185 C 
ATOM     13  OE1 GLU     4     -14.559 -25.973   6.257  1.00  0.00    -0.647 OA
ATOM     14  OE2 GLU     4     -13.628 -27.582   5.114  1.00  0.00    -0.647 OA
ENDBRANCH  11  12
ENDBRANCH  10  11
ENDBRANCH   9  10
BRANCH   9  15
ATOM     15  N   GLU     4     -10.245 -23.977   5.832  1.00  0.00    -0.229 NA
ATOM     16  C   PRO     3      -8.923 -24.020   5.711  1.00  0.00     0.272 C 
ATOM     17  O   PRO     3      -8.277 -23.207   5.048  1.00  0.00    -0.269 OA
BRANCH  16  18
ATOM     18  CA  PRO     3      -8.193 -24.796   6.810  1.00  0.00     0.165 C 
ATOM     19  N   PRO     3      -8.738 -24.608   8.171  1.00  0.00    -0.312 N 
ATOM     20  CD  PRO     3      -8.735 -25.906   8.893  1.00  0.00     0.105 C 
ATOM     21  C   ASP     2      -9.036 -23.409   8.702  1.00  0.00     0.257 C 
ATOM     22  CG  PRO     3      -7.952 -26.852   7.970  1.00  0.00     0.027 C 
ATOM     23  CB  PRO     3      -8.225 -26.304   6.572  1.00  0.00     0.034 C 
ATOM     24  O   ASP     2      -8.662 -22.366   8.144  1.00  0.00    -0.270 OA
BRANCH  21  25
ATOM     25  CA  ASP     2      -9.520 -23.325  10.168  1.00  0.00     0.195 C 
BRANCH  25  26
ATOM     26  CB  ASP     2     -11.050 -23.427  10.395  1.00  0.00     0.132 C 
BRANCH  26  27
ATOM     27  CG  ASP     2     -11.480 -24.902  10.504  1.00  0.00     0.188 C 
ATOM     28  OD2 ASP     2     -12.106 -25.359   9.514  1.00  0.00    -0.647 OA
ATOM     29  OD1 ASP     2     -11.711 -25.338  11.659  1.00  0.00    -0.647 OA
ENDBRANCH  26  27
ENDBRANCH  25  26
BRANCH  25  30
ATOM     30  N   ASP     2      -9.193 -22.029  10.786  1.00  0.00    -0.228 NA
ATOM     31  C   TYR     1      -8.124 -21.744  11.494  1.00  0.00     0.289 C 
ATOM     32  O   TYR     1      -7.122 -22.444  11.673  1.00  0.00    -0.268 OA
BRANCH  31  33
ATOM     33  CA  TYR     1      -8.226 -20.374  12.156  1.00  0.00     0.385 C 
ATOM     34  N   TYR     1      -7.524 -20.444  13.448  1.00  0.00     0.626 N 
BRANCH  33  35
ATOM     35  CB  TYR     1      -7.596 -19.360  11.203  1.00  0.00     0.075 C 
BRANCH  35  36
ATOM     36  CG  TYR     1      -8.567 -18.245  10.785  1.00  0.00    -0.019 A 
ATOM     37  CD2 TYR     1      -9.649 -17.894  11.578  1.00  0.00    -0.002 A 
ATOM     38  CE2 TYR     1     -10.429 -16.796  11.247  1.00  0.00     0.027 A 
ATOM     39  CZ  TYR     1     -10.116 -16.058  10.106  1.00  0.00     0.131 A 
ATOM     40  CE1 TYR     1      -9.060 -16.439   9.297  1.00  0.00     0.027 A 
ATOM     41  OH  TYR     1     -10.737 -14.886   9.865  1.00  0.00    -0.190 OA
ATOM     42  CD1 TYR     1      -8.280 -17.536   9.628  1.00  0.00    -0.002 A 
ENDBRANCH  35  36
ENDBRANCH  33  35
ENDBRANCH  31  33
ENDBRANCH  25  30
ENDBRANCH  21  25
ENDBRANCH  16  18
ENDBRANCH   9  15
ENDBRANCH   7   9
ENDBRANCH   5   6
BRANCH   5  43
ATOM     43  CB  TYR     5     -10.661 -19.441   7.678  1.00  0.00     0.060 C 
BRANCH  43  44
ATOM     44  CG  TYR     5     -11.822 -19.129   8.636  1.00  0.00    -0.020 A 
ATOM     45  CD2 TYR     5     -12.645 -18.032   8.416  1.00  0.00    -0.002 A 
ATOM     46  CE2 TYR     5     -13.699 -17.763   9.285  1.00  0.00     0.027 A 
ATOM     47  CZ  TYR     5     -13.929 -18.590  10.373  1.00  0.00     0.131 A 
ATOM     48  CE1 TYR     5     -13.121 -19.700  10.590  1.00  0.00     0.027 A 
ATOM     49  OH  TYR     5     -14.858 -18.258  11.296  1.00  0.00    -0.190 OA
ATOM     50  CD1 TYR     5     -12.060 -19.963   9.723  1.00  0.00    -0.002 A 
ENDBRANCH  43  44
ENDBRANCH   5  43
ENDBRANCH   3   5
ENDBRANCH   1   2
BRANCH   1  51
ATOM     51  CB  ARG     6      -9.821 -14.976   5.658  1.00  0.00     0.036 C 
BRANCH  51  52
ATOM     52  CG  ARG     6     -10.200 -13.914   4.623  1.00  0.00     0.029 C 
BRANCH  52  53
ATOM     53  CD  ARG     6      -8.963 -13.138   4.180  1.00  0.00     0.145 C 
BRANCH  53  54
ATOM     54  NE  ARG     6      -9.224 -11.689   4.169  1.00  0.00    -0.083 NA
ATOM     55  CZ  ARG     6      -8.284 -10.726   4.205  1.00  0.00     0.782 C 
ATOM     56  NH2 ARG     6      -8.634  -9.440   4.275  1.00  0.00     0.063 N 
ATOM     57  NH1 ARG     6      -6.996 -11.047   4.258  1.00  0.00     0.063 N 
ENDBRANCH  53  54
ENDBRANCH  52  53
ENDBRANCH  51  52
ENDBRANCH   1  51
BRANCH   1  58
ATOM     58  C   ARG     6      -8.050 -16.506   4.925  1.00  0.00     0.274 C 
ATOM     59  N   ASN     7      -7.391 -16.726   6.059  1.00  0.00    -0.228 NA
ATOM     60  O   ARG     6      -7.531 -16.415   3.811  1.00  0.00    -0.268 OA
BRANCH  59  61
ATOM     61  CA  ASN     7      -5.939 -16.994   6.119  1.00  0.00     0.196 C 
BRANCH  61  62
ATOM     62  C   ASN     7      -5.621 -18.470   5.810  1.00  0.00     0.275 C 
ATOM     63  N   PHE     8      -4.591 -18.710   4.985  1.00  0.00    -0.228 NA
ATOM     64  O   ASN     7      -6.036 -19.301   6.595  1.00  0.00    -0.268 OA
BRANCH  63  65
ATOM     65  CA  PHE     8      -4.080 -20.058   4.637  1.00  0.00     0.191 C 
BRANCH  65  66
ATOM     66  CB  PHE     8      -4.242 -20.257   3.124  1.00  0.00     0.060 C 
BRANCH  66  67
ATOM     67  CG  PHE     8      -4.833 -21.621   2.722  1.00  0.00    -0.020 A 
ATOM     68  CD1 PHE     8      -5.040 -22.598   3.686  1.00  0.00    -0.004 A 
ATOM     69  CE1 PHE     8      -5.479 -23.866   3.307  1.00  0.00    -0.000 A 
ATOM     70  CZ  PHE     8      -5.722 -24.139   1.970  1.00  0.00    -0.000 A 
ATOM     71  CE2 PHE     8      -5.528 -23.158   1.003  1.00  0.00    -0.000 A 
ATOM     72  CD2 PHE     8      -5.089 -21.889   1.383  1.00  0.00    -0.004 A 
ENDBRANCH  66  67
ENDBRANCH  65  66
BRANCH  65  73
ATOM     73  C   PHE     8      -2.634 -20.346   5.100  1.00  0.00     0.275 C 
ATOM     74  N   TRP     9      -2.500 -21.070   6.212  1.00  0.00    -0.228 NA
ATOM     75  O   PHE     8      -1.679 -19.733   4.616  1.00  0.00    -0.268 OA
BRANCH  74  76
ATOM     76  CA  TRP     9      -1.175 -21.525   6.701  1.00  0.00     0.191 C 
BRANCH  76  77
ATOM     77  CB  TRP     9      -0.479 -22.318   5.582  1.00  0.00     0.062 C 
BRANCH  77  78
ATOM     78  CG  TRP     9      -1.208 -23.610   5.217  1.00  0.00     0.001 A 
ATOM     79  CD1 TRP     9      -1.304 -24.695   5.980  1.00  0.00     0.095 A 
ATOM     80  NE1 TRP     9      -1.738 -25.717   5.254  1.00  0.00    -0.244 NA
ATOM     81  CE2 TRP     9      -1.952 -25.317   4.010  1.00  0.00     0.081 A 
ATOM     82  CD2 TRP     9      -1.612 -23.975   3.937  1.00  0.00     0.015 A 
ATOM     83  CZ2 TRP     9      -2.319 -25.995   2.847  1.00  0.00     0.019 A 
ATOM     84  CE3 TRP     9      -1.618 -23.306   2.722  1.00  0.00     0.001 A 
ATOM     85  CZ3 TRP     9      -1.970 -23.983   1.560  1.00  0.00     0.000 A 
ATOM     86  CH2 TRP     9      -2.338 -25.325   1.632  1.00  0.00     0.002 A 
ENDBRANCH  77  78
ENDBRANCH  76  77
BRANCH  76  87
ATOM     87  C   TRP     9      -0.271 -20.397   7.248  1.00  0.00     0.275 C 
ATOM     88  O   TRP     9      -0.729 -19.518   7.972  1.00  0.00    -0.268 OA
ATOM     89  N   GLY    10       1.028 -20.498   6.970  1.00  0.00    -0.226 NA
BRANCH  89  90
ATOM     90  CA  GLY    10       2.063 -19.538   7.442  1.00  0.00     0.218 C 
BRANCH  90  91
ATOM     91  C   GLY    10       3.310 -20.148   8.103  1.00  0.00     0.277 C 
ATOM     92  N   CYS    11       4.461 -19.885   7.486  1.00  0.00    -0.228 NA
ATOM     93  O   GLY    10       3.198 -20.952   9.022  1.00  0.00    -0.268 OA
BRANCH  92  94
ATOM     94  CA  CYS    11       5.809 -20.322   7.911  1.00  0.00     0.198 C 
BRANCH  94  95
ATOM     95  C   CYS    11       6.471 -19.158   8.675  1.00  0.00     0.275 C 
ATOM     96  O   CYS    11       6.165 -18.963   9.846  1.00  0.00    -0.268 OA
ATOM     97  N   GLY    12       7.188 -18.317   7.945  1.00  0.00    -0.225 NA
BRANCH  97  98
ATOM     98  CA  GLY    12       7.872 -17.145   8.513  1.00  0.00     0.226 C 
BRANCH  98  99
ATOM     99  C   GLY    12       8.726 -16.502   7.395  1.00  0.00     0.211 C 
ATOM    100  O1  GLY    12       9.748 -15.867   7.761  1.00  0.00    -0.646 OA
ATOM    101  O2  GLY    12       8.370 -16.684   6.216  1.00  0.00    -0.646 OA
ENDBRANCH  98  99
ENDBRANCH  97  98
ENDBRANCH  94  95
BRANCH  94 102
ATOM    102  CB  CYS    11       6.692 -20.568   6.690  1.00  0.00     0.103 C 
ATOM    103  SG  CYS    11       7.906 -21.935   6.832  1.00  0.00    -0.080 SA
ENDBRANCH  94 102
ENDBRANCH  92  94
ENDBRANCH  90  91
ENDBRANCH  89  90
ENDBRANCH  76  87
ENDBRANCH  74  76
ENDBRANCH  65  73
ENDBRANCH  63  65
ENDBRANCH  61  62
BRANCH  61 104
ATOM    104  CB  ASN     7      -5.352 -16.582   7.476  1.00  0.00     0.126 C 
BRANCH 104 105
ATOM    105  CG  ASN     7      -4.692 -15.191   7.500  1.00  0.00     0.276 C 
ATOM    106  ND2 ASN     7      -3.493 -15.131   8.033  1.00  0.00    -0.107 N 
ATOM    107  OD1 ASN     7      -5.252 -14.142   7.209  1.00  0.00    -0.269 OA
ENDBRANCH 104 105
ENDBRANCH  61 104
ENDBRANCH  59  61
ENDBRANCH   1  58
TORSDOF 42
ENDMDL
MODEL 4
REMARK VINA RESULT:      -5.1      3.430     12.522
REMARK WARNING: 32 MAX_TORS EXCEEDED!!!
REMARK  42 active torsions:
REMARK  status: ('A' for Active; 'I' for Inactive)
REMARK    1  A    between atoms: CA_2  and  CB_3 
REMARK    2  A    between atoms: CA_2  and  C_11 
REMARK    3  A    between atoms: CB_3  and  CG_4 
REMARK       I    between atoms: C_11  and  N_13 
REMARK    4  A    between atoms: N_13  and  CA_14 
REMARK    5  A    between atoms: CA_14  and  CB_15 
REMARK    6  A    between atoms: CA_14  and  C_19 
REMARK    7  A    between atoms: CB_15  and  CG_16 
REMARK       I    between atoms: C_19  and  N_21 
REMARK    8  A    between atoms: CA_22  and  C_26 
REMARK       I    between atoms: C_26  and  N_28 
REMARK    9  A    between atoms: N_28  and  CA_29 
REMARK   10  A    between atoms: CA_29  and  C_35 
REMARK   11  A    between atoms: CA_29  and  CB_30 
REMARK   12  A    between atoms: CB_30  and  CG_31 
REMARK   13  A    between atoms: CG_31  and  CD_32 
REMARK       I    between atoms: C_35  and  N_37 
REMARK   14  A    between atoms: N_37  and  CA_38 
REMARK   15  A    between atoms: CA_38  and  CB_39 
REMARK   16  A    between atoms: CA_38  and  C_47 
REMARK   17  A    between atoms: CB_39  and  CG_40 
REMARK       I    between atoms: C_47  and  N_49 
REMARK   18  A    between atoms: N_49  and  CA_50 
REMARK   19  A    between atoms: CA_50  and  CB_51 
REMARK   20  A    between atoms: CA_50  and  C_58 
REMARK   21  A    between atoms: CB_51  and  CG_52 
REMARK   22  A    between atoms: CG_52  and  CD_53 
REMARK   23  A    between atoms: CD_53  and  NE_54 
REMARK       I    between atoms: C_58  and  N_60 
REMARK   24  A    between atoms: N_60  and  CA_61 
REMARK   25  A    between atoms: CA_61  and  C_66 
REMARK   26  A    between atoms: CA_61  and  CB_62 
REMARK   27  A    between atoms: CB_62  and  CG_63 
REMARK       I    between atoms: C_66  and  N_68 
REMARK   28  A    between atoms: N_68  and  CA_69 
REMARK   29  A    between atoms: CA_69  and  CB_70 
REMARK   30  A    between atoms: CA_69  and  C_77 
REMARK   31  A    between atoms: CB_70  and  CG_71 
REMARK       I    between atoms: C_77  and  N_79 
REMARK   32  A    between atoms: N_79  and  CA_80 
REMARK   33  A    between atoms: CA_80  and  CB_81 
REMARK   34  A    between atoms: CA_80  and  C_91 
REMARK   35  A    between atoms: CB_81  and  CG_82 
REMARK       I    between atoms: C_91  and  N_93 
REMARK   36  A    between atoms: N_93  and  CA_94 
REMARK   37  A    between atoms: CA_94  and  C_95 
REMARK       I    between atoms: C_95  and  N_97 
REMARK   38  A    between atoms: N_97  and  CA_98 
REMARK   39  A    between atoms: CA_98  and  C_101 
REMARK   40  A    between atoms: CA_98  and  CB_99 
REMARK       I    between atoms: C_101  and  N_103 
REMARK   41  A    between atoms: N_103  and  CA_104 
REMARK   42  A    between atoms: CA_104  and  C_105 
ROOT
ATOM      1  CA  ARG     6      -9.904 -22.319   4.128  1.00  0.00     0.186 C 
ENDROOT
BRANCH   1   2
ATOM      2  N   ARG     6      -8.433 -22.498   4.116  1.00  0.00    -0.229 NA
ATOM      3  C   TYR     5      -7.602 -21.583   3.601  1.00  0.00     0.275 C 
ATOM      4  O   TYR     5      -8.005 -20.519   3.129  1.00  0.00    -0.268 OA
BRANCH   3   5
ATOM      5  CA  TYR     5      -6.095 -21.860   3.719  1.00  0.00     0.191 C 
BRANCH   5   6
ATOM      6  N   TYR     5      -5.565 -22.732   2.639  1.00  0.00    -0.228 NA
ATOM      7  C   GLU     4      -5.507 -24.070   2.739  1.00  0.00     0.274 C 
ATOM      8  O   GLU     4      -6.015 -24.686   3.667  1.00  0.00    -0.268 OA
BRANCH   7   9
ATOM      9  CA  GLU     4      -5.061 -24.825   1.469  1.00  0.00     0.187 C 
BRANCH   9  10
ATOM     10  CB  GLU     4      -5.970 -26.043   1.241  1.00  0.00     0.045 C 
BRANCH  10  11
ATOM     11  CG  GLU     4      -5.257 -27.400   1.044  1.00  0.00     0.100 C 
BRANCH  11  12
ATOM     12  CD  GLU     4      -4.944 -28.140   2.344  1.00  0.00     0.185 C 
ATOM     13  OE1 GLU     4      -5.524 -27.744   3.388  1.00  0.00    -0.647 OA
ATOM     14  OE2 GLU     4      -3.847 -28.730   2.402  1.00  0.00    -0.647 OA
ENDBRANCH  11  12
ENDBRANCH  10  11
ENDBRANCH   9  10
BRANCH   9  15
ATOM     15  N   GLU     4      -3.661 -25.286   1.528  1.00  0.00    -0.229 NA
ATOM     16  C   PRO     3      -2.641 -24.907   0.767  1.00  0.00     0.272 C 
ATOM     17  O   PRO     3      -2.620 -23.846   0.142  1.00  0.00    -0.269 OA
BRANCH  16  18
ATOM     18  CA  PRO     3      -1.304 -25.582   1.084  1.00  0.00     0.165 C 
ATOM     19  N   PRO     3      -0.922 -25.563   2.512  1.00  0.00    -0.312 N 
ATOM     20  CD  PRO     3      -0.321 -26.869   2.884  1.00  0.00     0.105 C 
ATOM     21  C   ASP     2      -0.974 -24.467   3.289  1.00  0.00     0.257 C 
ATOM     22  CG  PRO     3      -0.158 -27.608   1.547  1.00  0.00     0.027 C 
ATOM     23  CB  PRO     3      -1.292 -27.056   0.687  1.00  0.00     0.034 C 
ATOM     24  O   ASP     2      -1.150 -23.348   2.784  1.00  0.00    -0.270 OA
BRANCH  21  25
ATOM     25  CA  ASP     2      -0.468 -24.543   4.747  1.00  0.00     0.195 C 
BRANCH  25  26
ATOM     26  CB  ASP     2      -1.548 -24.469   5.857  1.00  0.00     0.132 C 
BRANCH  26  27
ATOM     27  CG  ASP     2      -2.242 -25.834   6.024  1.00  0.00     0.188 C 
ATOM     28  OD2 ASP     2      -1.485 -26.794   6.315  1.00  0.00    -0.647 OA
ATOM     29  OD1 ASP     2      -3.281 -26.025   5.345  1.00  0.00    -0.647 OA
ENDBRANCH  26  27
ENDBRANCH  25  26
BRANCH  25  30
ATOM     30  N   ASP     2       0.415 -23.415   5.087  1.00  0.00    -0.228 NA
ATOM     31  C   TYR     1       1.415 -23.429   5.937  1.00  0.00     0.289 C 
ATOM     32  O   TYR     1       1.906 -24.402   6.519  1.00  0.00    -0.268 OA
BRANCH  31  33
ATOM     33  CA  TYR     1       1.964 -22.029   6.197  1.00  0.00     0.385 C 
ATOM     34  N   TYR     1       3.324 -21.967   5.635  1.00  0.00     0.626 N 
BRANCH  33  35
ATOM     35  CB  TYR     1       1.012 -21.036   5.534  1.00  0.00     0.075 C 
BRANCH  35  36
ATOM     36  CG  TYR     1       0.647 -19.854   6.445  1.00  0.00    -0.019 A 
ATOM     37  CD2 TYR     1      -0.114 -18.793   5.981  1.00  0.00    -0.002 A 
ATOM     38  CE2 TYR     1      -0.543 -17.807   6.856  1.00  0.00     0.027 A 
ATOM     39  CZ  TYR     1      -0.193 -17.894   8.203  1.00  0.00     0.131 A 
ATOM     40  CE1 TYR     1       0.601 -18.934   8.651  1.00  0.00     0.027 A 
ATOM     41  OH  TYR     1      -0.749 -17.058   9.104  1.00  0.00    -0.190 OA
ATOM     42  CD1 TYR     1       1.030 -19.920   7.776  1.00  0.00    -0.002 A 
ENDBRANCH  35  36
ENDBRANCH  33  35
ENDBRANCH  31  33
ENDBRANCH  25  30
ENDBRANCH  21  25
ENDBRANCH  16  18
ENDBRANCH   9  15
ENDBRANCH   7   9
ENDBRANCH   5   6
BRANCH   5  43
ATOM     43  CB  TYR     5      -5.298 -20.545   3.774  1.00  0.00     0.060 C 
BRANCH  43  44
ATOM     44  CG  TYR     5      -4.601 -20.342   5.130  1.00  0.00    -0.020 A 
ATOM     45  CD2 TYR     5      -3.587 -21.198   5.539  1.00  0.00    -0.002 A 
ATOM     46  CE2 TYR     5      -2.957 -21.002   6.765  1.00  0.00     0.027 A 
ATOM     47  CZ  TYR     5      -3.341 -19.949   7.581  1.00  0.00     0.131 A 
ATOM     48  CE1 TYR     5      -4.343 -19.077   7.170  1.00  0.00     0.027 A 
ATOM     49  OH  TYR     5      -2.834 -19.834   8.827  1.00  0.00    -0.190 OA
ATOM     50  CD1 TYR     5      -4.979 -19.281   5.946  1.00  0.00    -0.002 A 
ENDBRANCH  43  44
ENDBRANCH   5  43
ENDBRANCH   3   5
ENDBRANCH   1   2
BRANCH   1  51
ATOM     51  CB  ARG     6     -10.609 -23.121   3.039  1.00  0.00     0.036 C 
BRANCH  51  52
ATOM     52  CG  ARG     6      -9.808 -24.331   2.551  1.00  0.00     0.029 C 
BRANCH  52  53
ATOM     53  CD  ARG     6     -10.649 -25.601   2.652  1.00  0.00     0.145 C 
BRANCH  53  54
ATOM     54  NE  ARG     6      -9.813 -26.761   3.005  1.00  0.00    -0.083 NA
ATOM     55  CZ  ARG     6      -9.307 -27.653   2.132  1.00  0.00     0.782 C 
ATOM     56  NH2 ARG     6      -8.630 -28.717   2.567  1.00  0.00     0.063 N 
ATOM     57  NH1 ARG     6      -9.549 -27.530   0.831  1.00  0.00     0.063 N 
ENDBRANCH  53  54
ENDBRANCH  52  53
ENDBRANCH  51  52
ENDBRANCH   1  51
BRANCH   1  58
ATOM     58  C   ARG     6     -10.536 -22.739   5.461  1.00  0.00     0.274 C 
ATOM     59  N   ASN     7      -9.761 -23.463   6.264  1.00  0.00    -0.228 NA
ATOM     60  O   ARG     6     -11.693 -22.399   5.711  1.00  0.00    -0.268 OA
BRANCH  59  61
ATOM     61  CA  ASN     7     -10.159 -23.875   7.626  1.00  0.00     0.196 C 
BRANCH  61  62
ATOM     62  C   ASN     7      -9.844 -22.781   8.664  1.00  0.00     0.275 C 
ATOM     63  N   PHE     8      -8.814 -21.965   8.394  1.00  0.00    -0.228 NA
ATOM     64  O   ASN     7     -10.735 -22.473   9.432  1.00  0.00    -0.268 OA
BRANCH  63  65
ATOM     65  CA  PHE     8      -8.412 -20.804   9.224  1.00  0.00     0.191 C 
BRANCH  65  66
ATOM     66  CB  PHE     8      -6.880 -20.790   9.321  1.00  0.00     0.060 C 
BRANCH  66  67
ATOM     67  CG  PHE     8      -6.198 -22.068   8.798  1.00  0.00    -0.020 A 
ATOM     68  CD1 PHE     8      -6.315 -22.419   7.460  1.00  0.00    -0.004 A 
ATOM     69  CE1 PHE     8      -5.784 -23.627   7.010  1.00  0.00    -0.000 A 
ATOM     70  CZ  PHE     8      -5.129 -24.464   7.898  1.00  0.00    -0.000 A 
ATOM     71  CE2 PHE     8      -4.999 -24.109   9.237  1.00  0.00    -0.000 A 
ATOM     72  CD2 PHE     8      -5.529 -22.901   9.687  1.00  0.00    -0.004 A 
ENDBRANCH  66  67
ENDBRANCH  65  66
BRANCH  65  73
ATOM     73  C   PHE     8      -8.966 -19.441   8.752  1.00  0.00     0.275 C 
ATOM     74  N   TRP     9      -8.096 -18.617   8.165  1.00  0.00    -0.228 NA
ATOM     75  O   PHE     8     -10.073 -19.043   9.125  1.00  0.00    -0.268 OA
BRANCH  74  76
ATOM     76  CA  TRP     9      -8.517 -17.332   7.555  1.00  0.00     0.191 C 
BRANCH  76  77
ATOM     77  CB  TRP     9      -7.986 -16.176   8.419  1.00  0.00     0.062 C 
BRANCH  77  78
ATOM     78  CG  TRP     9      -6.514 -16.333   8.796  1.00  0.00     0.001 A 
ATOM     79  CD1 TRP     9      -6.039 -17.063   9.801  1.00  0.00     0.095 A 
ATOM     80  NE1 TRP     9      -4.770 -16.746  10.025  1.00  0.00    -0.244 NA
ATOM     81  CE2 TRP     9      -4.386 -15.820   9.160  1.00  0.00     0.081 A 
ATOM     82  CD2 TRP     9      -5.476 -15.515   8.361  1.00  0.00     0.015 A 
ATOM     83  CZ2 TRP     9      -3.206 -15.090   9.017  1.00  0.00     0.019 A 
ATOM     84  CE3 TRP     9      -5.412 -14.485   7.434  1.00  0.00     0.001 A 
ATOM     85  CZ3 TRP     9      -4.241 -13.747   7.299  1.00  0.00     0.000 A 
ATOM     86  CH2 TRP     9      -3.134 -14.068   8.081  1.00  0.00     0.002 A 
ENDBRANCH  77  78
ENDBRANCH  76  77
BRANCH  76  87
ATOM     87  C   TRP     9      -8.118 -17.165   6.071  1.00  0.00     0.275 C 
ATOM     88  O   TRP     9      -8.096 -18.129   5.313  1.00  0.00    -0.268 OA
ATOM     89  N   GLY    10      -7.904 -15.917   5.657  1.00  0.00    -0.226 NA
BRANCH  89  90
ATOM     90  CA  GLY    10      -7.554 -15.547   4.258  1.00  0.00     0.218 C 
BRANCH  90  91
ATOM     91  C   GLY    10      -8.497 -14.555   3.558  1.00  0.00     0.277 C 
ATOM     92  N   CYS    11      -8.835 -13.491   4.285  1.00  0.00    -0.228 NA
ATOM     93  O   GLY    10      -9.016 -14.840   2.485  1.00  0.00    -0.268 OA
BRANCH  92  94
ATOM     94  CA  CYS    11      -9.705 -12.372   3.858  1.00  0.00     0.198 C 
BRANCH  94  95
ATOM     95  C   CYS    11      -8.978 -11.051   4.179  1.00  0.00     0.275 C 
ATOM     96  O   CYS    11      -7.760 -10.995   4.048  1.00  0.00    -0.268 OA
ATOM     97  N   GLY    12      -9.705 -10.115   4.770  1.00  0.00    -0.225 NA
BRANCH  97  98
ATOM     98  CA  GLY    12      -9.162  -8.804   5.159  1.00  0.00     0.226 C 
BRANCH  98  99
ATOM     99  C   GLY    12      -9.428  -7.815   4.000  1.00  0.00     0.211 C 
ATOM    100  O1  GLY    12     -10.580  -7.832   3.497  1.00  0.00    -0.646 OA
ATOM    101  O2  GLY    12      -8.505  -7.049   3.668  1.00  0.00    -0.646 OA
ENDBRANCH  98  99
ENDBRANCH  97  98
ENDBRANCH  94  95
BRANCH  94 102
ATOM    102  CB  CYS    11     -10.983 -12.352   4.693  1.00  0.00     0.103 C 
ATOM    103  SG  CYS    11     -12.559 -12.483   3.763  1.00  0.00    -0.080 SA
ENDBRANCH  94 102
ENDBRANCH  92  94
ENDBRANCH  90  91
ENDBRANCH  89  90
ENDBRANCH  76  87
ENDBRANCH  74  76
ENDBRANCH  65  73
ENDBRANCH  63  65
ENDBRANCH  61  62
BRANCH  61 104
ATOM    104  CB  ASN     7      -9.503 -25.205   8.019  1.00  0.00     0.126 C 
BRANCH 104 105
ATOM    105  CG  ASN     7     -10.481 -26.287   8.514  1.00  0.00     0.276 C 
ATOM    106  ND2 ASN     7     -10.941 -26.133   9.734  1.00  0.00    -0.107 N 
ATOM    107  OD1 ASN     7     -10.728 -27.332   7.926  1.00  0.00    -0.269 OA
ENDBRANCH 104 105
ENDBRANCH  61 104
ENDBRANCH  59  61
ENDBRANCH   1  58
TORSDOF 42
ENDMDL
MODEL 5
REMARK VINA RESULT:      -5.0      3.143      8.162
REMARK WARNING: 32 MAX_TORS EXCEEDED!!!
REMARK  42 active torsions:
REMARK  status: ('A' for Active; 'I' for Inactive)
REMARK    1  A    between atoms: CA_2  and  CB_3 
REMARK    2  A    between atoms: CA_2  and  C_11 
REMARK    3  A    between atoms: CB_3  and  CG_4 
REMARK       I    between atoms: C_11  and  N_13 
REMARK    4  A    between atoms: N_13  and  CA_14 
REMARK    5  A    between atoms: CA_14  and  CB_15 
REMARK    6  A    between atoms: CA_14  and  C_19 
REMARK    7  A    between atoms: CB_15  and  CG_16 
REMARK       I    between atoms: C_19  and  N_21 
REMARK    8  A    between atoms: CA_22  and  C_26 
REMARK       I    between atoms: C_26  and  N_28 
REMARK    9  A    between atoms: N_28  and  CA_29 
REMARK   10  A    between atoms: CA_29  and  C_35 
REMARK   11  A    between atoms: CA_29  and  CB_30 
REMARK   12  A    between atoms: CB_30  and  CG_31 
REMARK   13  A    between atoms: CG_31  and  CD_32 
REMARK       I    between atoms: C_35  and  N_37 
REMARK   14  A    between atoms: N_37  and  CA_38 
REMARK   15  A    between atoms: CA_38  and  CB_39 
REMARK   16  A    between atoms: CA_38  and  C_47 
REMARK   17  A    between atoms: CB_39  and  CG_40 
REMARK       I    between atoms: C_47  and  N_49 
REMARK   18  A    between atoms: N_49  and  CA_50 
REMARK   19  A    between atoms: CA_50  and  CB_51 
REMARK   20  A    between atoms: CA_50  and  C_58 
REMARK   21  A    between atoms: CB_51  and  CG_52 
REMARK   22  A    between atoms: CG_52  and  CD_53 
REMARK   23  A    between atoms: CD_53  and  NE_54 
REMARK       I    between atoms: C_58  and  N_60 
REMARK   24  A    between atoms: N_60  and  CA_61 
REMARK   25  A    between atoms: CA_61  and  C_66 
REMARK   26  A    between atoms: CA_61  and  CB_62 
REMARK   27  A    between atoms: CB_62  and  CG_63 
REMARK       I    between atoms: C_66  and  N_68 
REMARK   28  A    between atoms: N_68  and  CA_69 
REMARK   29  A    between atoms: CA_69  and  CB_70 
REMARK   30  A    between atoms: CA_69  and  C_77 
REMARK   31  A    between atoms: CB_70  and  CG_71 
REMARK       I    between atoms: C_77  and  N_79 
REMARK   32  A    between atoms: N_79  and  CA_80 
REMARK   33  A    between atoms: CA_80  and  CB_81 
REMARK   34  A    between atoms: CA_80  and  C_91 
REMARK   35  A    between atoms: CB_81  and  CG_82 
REMARK       I    between atoms: C_91  and  N_93 
REMARK   36  A    between atoms: N_93  and  CA_94 
REMARK   37  A    between atoms: CA_94  and  C_95 
REMARK       I    between atoms: C_95  and  N_97 
REMARK   38  A    between atoms: N_97  and  CA_98 
REMARK   39  A    between atoms: CA_98  and  C_101 
REMARK   40  A    between atoms: CA_98  and  CB_99 
REMARK       I    between atoms: C_101  and  N_103 
REMARK   41  A    between atoms: N_103  and  CA_104 
REMARK   42  A    between atoms: CA_104  and  C_105 
ROOT
ATOM      1  CA  ARG     6      -1.821 -20.984   4.901  1.00  0.00     0.186 C 
ENDROOT
BRANCH   1   2
ATOM      2  N   ARG     6      -3.139 -21.486   4.447  1.00  0.00    -0.229 NA
ATOM      3  C   TYR     5      -3.898 -20.819   3.568  1.00  0.00     0.275 C 
ATOM      4  O   TYR     5      -3.536 -19.758   3.058  1.00  0.00    -0.268 OA
BRANCH   3   5
ATOM      5  CA  TYR     5      -5.209 -21.487   3.125  1.00  0.00     0.191 C 
BRANCH   5   6
ATOM      6  N   TYR     5      -5.051 -22.919   2.760  1.00  0.00    -0.228 NA
ATOM      7  C   GLU     4      -5.510 -23.438   1.609  1.00  0.00     0.274 C 
ATOM      8  O   GLU     4      -5.968 -22.746   0.709  1.00  0.00    -0.268 OA
BRANCH   7   9
ATOM      9  CA  GLU     4      -5.134 -24.908   1.332  1.00  0.00     0.187 C 
BRANCH   9  10
ATOM     10  CB  GLU     4      -4.800 -25.089  -0.157  1.00  0.00     0.045 C 
BRANCH  10  11
ATOM     11  CG  GLU     4      -3.418 -25.700  -0.479  1.00  0.00     0.100 C 
BRANCH  11  12
ATOM     12  CD  GLU     4      -2.284 -25.192   0.411  1.00  0.00     0.185 C 
ATOM     13  OE1 GLU     4      -1.972 -23.976   0.312  1.00  0.00    -0.647 OA
ATOM     14  OE2 GLU     4      -1.455 -26.038   0.801  1.00  0.00    -0.647 OA
ENDBRANCH  11  12
ENDBRANCH  10  11
ENDBRANCH   9  10
BRANCH   9  15
ATOM     15  N   GLU     4      -6.201 -25.860   1.695  1.00  0.00    -0.229 NA
ATOM     16  C   PRO     3      -6.087 -27.155   1.967  1.00  0.00     0.272 C 
ATOM     17  O   PRO     3      -5.031 -27.681   2.321  1.00  0.00    -0.269 OA
BRANCH  16  18
ATOM     18  CA  PRO     3      -7.397 -27.868   2.309  1.00  0.00     0.165 C 
ATOM     19  N   PRO     3      -8.298 -27.116   3.209  1.00  0.00    -0.312 N 
ATOM     20  CD  PRO     3      -9.703 -27.278   2.757  1.00  0.00     0.105 C 
ATOM     21  C   ASP     2      -7.896 -26.517   4.345  1.00  0.00     0.257 C 
ATOM     22  CG  PRO     3      -9.628 -28.351   1.661  1.00  0.00     0.027 C 
ATOM     23  CB  PRO     3      -8.234 -28.168   1.068  1.00  0.00     0.034 C 
ATOM     24  O   ASP     2      -6.771 -26.748   4.811  1.00  0.00    -0.270 OA
BRANCH  21  25
ATOM     25  CA  ASP     2      -8.942 -25.830   5.253  1.00  0.00     0.195 C 
BRANCH  25  26
ATOM     26  CB  ASP     2      -8.964 -24.280   5.229  1.00  0.00     0.132 C 
BRANCH  26  27
ATOM     27  CG  ASP     2      -9.676 -23.772   3.961  1.00  0.00     0.188 C 
ATOM     28  OD2 ASP     2     -10.864 -24.159   3.816  1.00  0.00    -0.647 OA
ATOM     29  OD1 ASP     2      -8.953 -23.549   2.959  1.00  0.00    -0.647 OA
ENDBRANCH  26  27
ENDBRANCH  25  26
BRANCH  25  30
ATOM     30  N   ASP     2      -8.714 -26.123   6.679  1.00  0.00    -0.228 NA
ATOM     31  C   TYR     1      -9.596 -26.580   7.536  1.00  0.00     0.289 C 
ATOM     32  O   TYR     1     -10.741 -26.984   7.308  1.00  0.00    -0.268 OA
BRANCH  31  33
ATOM     33  CA  TYR     1      -9.068 -26.555   8.967  1.00  0.00     0.385 C 
ATOM     34  N   TYR     1     -10.174 -26.930   9.864  1.00  0.00     0.626 N 
BRANCH  33  35
ATOM     35  CB  TYR     1      -7.900 -27.536   9.038  1.00  0.00     0.075 C 
BRANCH  35  36
ATOM     36  CG  TYR     1      -6.706 -26.992   9.837  1.00  0.00    -0.019 A 
ATOM     37  CD2 TYR     1      -5.524 -27.709   9.949  1.00  0.00    -0.002 A 
ATOM     38  CE2 TYR     1      -4.417 -27.139  10.559  1.00  0.00     0.027 A 
ATOM     39  CZ  TYR     1      -4.512 -25.842  11.063  1.00  0.00     0.131 A 
ATOM     40  CE1 TYR     1      -5.706 -25.148  10.985  1.00  0.00     0.027 A 
ATOM     41  OH  TYR     1      -3.406 -25.198  11.490  1.00  0.00    -0.190 OA
ATOM     42  CD1 TYR     1      -6.813 -25.719  10.375  1.00  0.00    -0.002 A 
ENDBRANCH  35  36
ENDBRANCH  33  35
ENDBRANCH  31  33
ENDBRANCH  25  30
ENDBRANCH  21  25
ENDBRANCH  16  18
ENDBRANCH   9  15
ENDBRANCH   7   9
ENDBRANCH   5   6
BRANCH   5  43
ATOM     43  CB  TYR     5      -6.295 -21.335   4.204  1.00  0.00     0.060 C 
BRANCH  43  44
ATOM     44  CG  TYR     5      -6.259 -19.952   4.877  1.00  0.00    -0.020 A 
ATOM     45  CD2 TYR     5      -6.684 -18.821   4.192  1.00  0.00    -0.002 A 
ATOM     46  CE2 TYR     5      -6.655 -17.576   4.811  1.00  0.00     0.027 A 
ATOM     47  CZ  TYR     5      -6.200 -17.461   6.116  1.00  0.00     0.131 A 
ATOM     48  CE1 TYR     5      -5.790 -18.591   6.815  1.00  0.00     0.027 A 
ATOM     49  OH  TYR     5      -6.037 -16.242   6.675  1.00  0.00    -0.190 OA
ATOM     50  CD1 TYR     5      -5.812 -19.837   6.188  1.00  0.00    -0.002 A 
ENDBRANCH  43  44
ENDBRANCH   5  43
ENDBRANCH   3   5
ENDBRANCH   1   2
BRANCH   1  51
ATOM     51  CB  ARG     6      -1.772 -20.718   6.402  1.00  0.00     0.036 C 
BRANCH  51  52
ATOM     52  CG  ARG     6      -1.351 -19.290   6.760  1.00  0.00     0.029 C 
BRANCH  52  53
ATOM     53  CD  ARG     6      -2.369 -18.287   6.225  1.00  0.00     0.145 C 
BRANCH  53  54
ATOM     54  NE  ARG     6      -1.947 -16.905   6.509  1.00  0.00    -0.083 NA
ATOM     55  CZ  ARG     6      -2.287 -16.193   7.599  1.00  0.00     0.782 C 
ATOM     56  NH2 ARG     6      -1.917 -14.916   7.717  1.00  0.00     0.063 N 
ATOM     57  NH1 ARG     6      -3.068 -16.726   8.533  1.00  0.00     0.063 N 
ENDBRANCH  53  54
ENDBRANCH  52  53
ENDBRANCH  51  52
ENDBRANCH   1  51
BRANCH   1  58
ATOM     58  C   ARG     6      -0.681 -21.963   4.591  1.00  0.00     0.274 C 
ATOM     59  N   ASN     7       0.075 -22.314   5.627  1.00  0.00    -0.228 NA
ATOM     60  O   ARG     6      -0.526 -22.359   3.435  1.00  0.00    -0.268 OA
BRANCH  59  61
ATOM     61  CA  ASN     7       1.155 -23.320   5.544  1.00  0.00     0.196 C 
BRANCH  61  62
ATOM     62  C   ASN     7       0.728 -24.664   6.166  1.00  0.00     0.275 C 
ATOM     63  N   PHE     8      -0.588 -24.916   6.221  1.00  0.00    -0.228 NA
ATOM     64  O   ASN     7       1.563 -25.546   6.205  1.00  0.00    -0.268 OA
BRANCH  63  65
ATOM     65  CA  PHE     8      -1.189 -26.184   6.702  1.00  0.00     0.191 C 
BRANCH  65  66
ATOM     66  CB  PHE     8      -1.981 -25.885   7.983  1.00  0.00     0.060 C 
BRANCH  66  67
ATOM     67  CG  PHE     8      -3.185 -24.947   7.782  1.00  0.00    -0.020 A 
ATOM     68  CD1 PHE     8      -3.127 -23.638   8.239  1.00  0.00    -0.004 A 
ATOM     69  CE1 PHE     8      -4.253 -22.820   8.149  1.00  0.00    -0.000 A 
ATOM     70  CZ  PHE     8      -5.420 -23.315   7.588  1.00  0.00    -0.000 A 
ATOM     71  CE2 PHE     8      -5.476 -24.623   7.117  1.00  0.00    -0.000 A 
ATOM     72  CD2 PHE     8      -4.350 -25.440   7.207  1.00  0.00    -0.004 A 
ENDBRANCH  66  67
ENDBRANCH  65  66
BRANCH  65  73
ATOM     73  C   PHE     8      -2.050 -26.935   5.661  1.00  0.00     0.275 C 
ATOM     74  N   TRP     9      -2.318 -28.215   5.925  1.00  0.00    -0.228 NA
ATOM     75  O   PHE     8      -2.255 -26.455   4.544  1.00  0.00    -0.268 OA
BRANCH  74  76
ATOM     76  CA  TRP     9      -3.232 -29.019   5.077  1.00  0.00     0.191 C 
BRANCH  76  77
ATOM     77  CB  TRP     9      -2.435 -30.172   4.444  1.00  0.00     0.062 C 
BRANCH  77  78
ATOM     78  CG  TRP     9      -2.029 -29.899   2.996  1.00  0.00     0.001 A 
ATOM     79  CD1 TRP     9      -2.586 -30.436   1.914  1.00  0.00     0.095 A 
ATOM     80  NE1 TRP     9      -1.813 -30.219   0.858  1.00  0.00    -0.244 NA
ATOM     81  CE2 TRP     9      -0.748 -29.521   1.224  1.00  0.00     0.081 A 
ATOM     82  CD2 TRP     9      -0.838 -29.305   2.590  1.00  0.00     0.015 A 
ATOM     83  CZ2 TRP     9       0.396 -29.110   0.540  1.00  0.00     0.019 A 
ATOM     84  CE3 TRP     9       0.200 -28.701   3.284  1.00  0.00     0.001 A 
ATOM     85  CZ3 TRP     9       1.347 -28.303   2.606  1.00  0.00     0.000 A 
ATOM     86  CH2 TRP     9       1.430 -28.494   1.228  1.00  0.00     0.002 A 
ENDBRANCH  77  78
ENDBRANCH  76  77
BRANCH  76  87
ATOM     87  C   TRP     9      -4.496 -29.532   5.803  1.00  0.00     0.275 C 
ATOM     88  O   TRP     9      -4.568 -29.518   7.028  1.00  0.00    -0.268 OA
ATOM     89  N   GLY    10      -5.519 -29.885   5.026  1.00  0.00    -0.226 NA
BRANCH  89  90
ATOM     90  CA  GLY    10      -6.834 -30.362   5.536  1.00  0.00     0.218 C 
BRANCH  90  91
ATOM     91  C   GLY    10      -6.946 -31.866   5.833  1.00  0.00     0.277 C 
ATOM     92  N   CYS    11      -7.423 -32.604   4.832  1.00  0.00    -0.228 NA
ATOM     93  O   GLY    10      -6.769 -32.291   6.969  1.00  0.00    -0.268 OA
BRANCH  92  94
ATOM     94  CA  CYS    11      -7.614 -34.072   4.832  1.00  0.00     0.198 C 
BRANCH  94  95
ATOM     95  C   CYS    11      -6.705 -34.673   3.743  1.00  0.00     0.275 C 
ATOM     96  O   CYS    11      -7.217 -35.173   2.748  1.00  0.00    -0.268 OA
ATOM     97  N   GLY    12      -5.421 -34.785   4.054  1.00  0.00    -0.225 NA
BRANCH  97  98
ATOM     98  CA  GLY    12      -4.421 -35.352   3.136  1.00  0.00     0.226 C 
BRANCH  98  99
ATOM     99  C   GLY    12      -3.610 -34.182   2.532  1.00  0.00     0.211 C 
ATOM    100  O1  GLY    12      -4.067 -33.663   1.482  1.00  0.00    -0.646 OA
ATOM    101  O2  GLY    12      -2.588 -33.810   3.138  1.00  0.00    -0.646 OA
ENDBRANCH  98  99
ENDBRANCH  97  98
ENDBRANCH  94  95
BRANCH  94 102
ATOM    102  CB  CYS    11      -9.042 -34.415   4.413  1.00  0.00     0.103 C 
ATOM    103  SG  CYS    11      -9.883 -35.715   5.396  1.00  0.00    -0.080 SA
ENDBRANCH  94 102
ENDBRANCH  92  94
ENDBRANCH  90  91
ENDBRANCH  89  90
ENDBRANCH  76  87
ENDBRANCH  74  76
ENDBRANCH  65  73
ENDBRANCH  63  65
ENDBRANCH  61  62
BRANCH  61 104
ATOM    104  CB  ASN     7       2.446 -22.804   6.192  1.00  0.00     0.126 C 
BRANCH 104 105
ATOM    105  CG  ASN     7       2.306 -21.464   6.938  1.00  0.00     0.276 C 
ATOM    106  ND2 ASN     7       1.763 -21.523   8.133  1.00  0.00    -0.107 N 
ATOM    107  OD1 ASN     7       2.514 -20.362   6.447  1.00  0.00    -0.269 OA
ENDBRANCH 104 105
ENDBRANCH  61 104
ENDBRANCH  59  61
ENDBRANCH   1  58
TORSDOF 42
ENDMDL
MODEL 6
REMARK VINA RESULT:      -4.8     17.047     23.340
REMARK WARNING: 32 MAX_TORS EXCEEDED!!!
REMARK  42 active torsions:
REMARK  status: ('A' for Active; 'I' for Inactive)
REMARK    1  A    between atoms: CA_2  and  CB_3 
REMARK    2  A    between atoms: CA_2  and  C_11 
REMARK    3  A    between atoms: CB_3  and  CG_4 
REMARK       I    between atoms: C_11  and  N_13 
REMARK    4  A    between atoms: N_13  and  CA_14 
REMARK    5  A    between atoms: CA_14  and  CB_15 
REMARK    6  A    between atoms: CA_14  and  C_19 
REMARK    7  A    between atoms: CB_15  and  CG_16 
REMARK       I    between atoms: C_19  and  N_21 
REMARK    8  A    between atoms: CA_22  and  C_26 
REMARK       I    between atoms: C_26  and  N_28 
REMARK    9  A    between atoms: N_28  and  CA_29 
REMARK   10  A    between atoms: CA_29  and  C_35 
REMARK   11  A    between atoms: CA_29  and  CB_30 
REMARK   12  A    between atoms: CB_30  and  CG_31 
REMARK   13  A    between atoms: CG_31  and  CD_32 
REMARK       I    between atoms: C_35  and  N_37 
REMARK   14  A    between atoms: N_37  and  CA_38 
REMARK   15  A    between atoms: CA_38  and  CB_39 
REMARK   16  A    between atoms: CA_38  and  C_47 
REMARK   17  A    between atoms: CB_39  and  CG_40 
REMARK       I    between atoms: C_47  and  N_49 
REMARK   18  A    between atoms: N_49  and  CA_50 
REMARK   19  A    between atoms: CA_50  and  CB_51 
REMARK   20  A    between atoms: CA_50  and  C_58 
REMARK   21  A    between atoms: CB_51  and  CG_52 
REMARK   22  A    between atoms: CG_52  and  CD_53 
REMARK   23  A    between atoms: CD_53  and  NE_54 
REMARK       I    between atoms: C_58  and  N_60 
REMARK   24  A    between atoms: N_60  and  CA_61 
REMARK   25  A    between atoms: CA_61  and  C_66 
REMARK   26  A    between atoms: CA_61  and  CB_62 
REMARK   27  A    between atoms: CB_62  and  CG_63 
REMARK       I    between atoms: C_66  and  N_68 
REMARK   28  A    between atoms: N_68  and  CA_69 
REMARK   29  A    between atoms: CA_69  and  CB_70 
REMARK   30  A    between atoms: CA_69  and  C_77 
REMARK   31  A    between atoms: CB_70  and  CG_71 
REMARK       I    between atoms: C_77  and  N_79 
REMARK   32  A    between atoms: N_79  and  CA_80 
REMARK   33  A    between atoms: CA_80  and  CB_81 
REMARK   34  A    between atoms: CA_80  and  C_91 
REMARK   35  A    between atoms: CB_81  and  CG_82 
REMARK       I    between atoms: C_91  and  N_93 
REMARK   36  A    between atoms: N_93  and  CA_94 
REMARK   37  A    between atoms: CA_94  and  C_95 
REMARK       I    between atoms: C_95  and  N_97 
REMARK   38  A    between atoms: N_97  and  CA_98 
REMARK   39  A    between atoms: CA_98  and  C_101 
REMARK   40  A    between atoms: CA_98  and  CB_99 
REMARK       I    between atoms: C_101  and  N_103 
REMARK   41  A    between atoms: N_103  and  CA_104 
REMARK   42  A    between atoms: CA_104  and  C_105 
ROOT
ATOM      1  CA  ARG     6      11.656  -8.373  11.295  1.00  0.00     0.186 C 
ENDROOT
BRANCH   1   2
ATOM      2  N   ARG     6      10.289  -7.810  11.188  1.00  0.00    -0.229 NA
ATOM      3  C   TYR     5       9.709  -7.137  12.190  1.00  0.00     0.275 C 
ATOM      4  O   TYR     5      10.285  -6.916  13.256  1.00  0.00    -0.268 OA
BRANCH   3   5
ATOM      5  CA  TYR     5       8.317  -6.542  11.921  1.00  0.00     0.191 C 
BRANCH   5   6
ATOM      6  N   TYR     5       8.216  -5.097  12.252  1.00  0.00    -0.228 NA
ATOM      7  C   GLU     4       8.824  -4.136  11.537  1.00  0.00     0.274 C 
ATOM      8  O   GLU     4       9.393  -4.362  10.477  1.00  0.00    -0.268 OA
BRANCH   7   9
ATOM      9  CA  GLU     4       8.496  -2.683  11.939  1.00  0.00     0.187 C 
BRANCH   9  10
ATOM     10  CB  GLU     4       6.980  -2.446  11.846  1.00  0.00     0.045 C 
BRANCH  10  11
ATOM     11  CG  GLU     4       6.319  -2.772  10.489  1.00  0.00     0.100 C 
BRANCH  11  12
ATOM     12  CD  GLU     4       4.792  -2.820  10.528  1.00  0.00     0.185 C 
ATOM     13  OE1 GLU     4       4.183  -2.745   9.429  1.00  0.00    -0.647 OA
ATOM     14  OE2 GLU     4       4.247  -2.462  11.591  1.00  0.00    -0.647 OA
ENDBRANCH  11  12
ENDBRANCH  10  11
ENDBRANCH   9  10
BRANCH   9  15
ATOM     15  N   GLU     4       9.182  -1.679  11.103  1.00  0.00    -0.229 NA
ATOM     16  C   PRO     3      10.409  -1.193  11.246  1.00  0.00     0.272 C 
ATOM     17  O   PRO     3      11.297  -1.773  11.874  1.00  0.00    -0.269 OA
BRANCH  16  18
ATOM     18  CA  PRO     3      10.825  -0.153  10.205  1.00  0.00     0.165 C 
ATOM     19  N   PRO     3      10.564  -0.539   8.802  1.00  0.00    -0.312 N 
ATOM     20  CD  PRO     3      10.062   0.636   8.045  1.00  0.00     0.105 C 
ATOM     21  C   ASP     2      10.890  -1.735   8.279  1.00  0.00     0.257 C 
ATOM     22  CG  PRO     3      10.241   1.815   9.014  1.00  0.00     0.027 C 
ATOM     23  CB  PRO     3      10.099   1.177  10.393  1.00  0.00     0.034 C 
ATOM     24  O   ASP     2      11.630  -2.511   8.903  1.00  0.00    -0.270 OA
BRANCH  21  25
ATOM     25  CA  ASP     2      10.648  -2.000   6.775  1.00  0.00     0.195 C 
BRANCH  25  26
ATOM     26  CB  ASP     2       9.992  -3.356   6.411  1.00  0.00     0.132 C 
BRANCH  26  27
ATOM     27  CG  ASP     2       8.476  -3.182   6.200  1.00  0.00     0.188 C 
ATOM     28  OD2 ASP     2       8.143  -2.299   5.369  1.00  0.00    -0.647 OA
ATOM     29  OD1 ASP     2       7.737  -3.444   7.181  1.00  0.00    -0.647 OA
ENDBRANCH  26  27
ENDBRANCH  25  26
BRANCH  25  30
ATOM     30  N   ASP     2      11.906  -2.039   6.010  1.00  0.00    -0.228 NA
ATOM     31  C   TYR     1      12.052  -1.801   4.727  1.00  0.00     0.289 C 
ATOM     32  O   TYR     1      11.210  -1.370   3.933  1.00  0.00    -0.268 OA
BRANCH  31  33
ATOM     33  CA  TYR     1      13.455  -2.147   4.239  1.00  0.00     0.385 C 
ATOM     34  N   TYR     1      13.666  -1.462   2.952  1.00  0.00     0.626 N 
BRANCH  33  35
ATOM     35  CB  TYR     1      14.437  -1.687   5.313  1.00  0.00     0.075 C 
BRANCH  35  36
ATOM     36  CG  TYR     1      15.445  -2.776   5.712  1.00  0.00    -0.019 A 
ATOM     37  CD2 TYR     1      16.769  -2.720   5.305  1.00  0.00    -0.002 A 
ATOM     38  CE2 TYR     1      17.687  -3.640   5.789  1.00  0.00     0.027 A 
ATOM     39  CZ  TYR     1      17.259  -4.622   6.682  1.00  0.00     0.131 A 
ATOM     40  CE1 TYR     1      15.929  -4.697   7.053  1.00  0.00     0.027 A 
ATOM     41  OH  TYR     1      18.159  -5.406   7.310  1.00  0.00    -0.190 OA
ATOM     42  CD1 TYR     1      15.011  -3.777   6.569  1.00  0.00    -0.002 A 
ENDBRANCH  35  36
ENDBRANCH  33  35
ENDBRANCH  31  33
ENDBRANCH  25  30
ENDBRANCH  21  25
ENDBRANCH  16  18
ENDBRANCH   9  15
ENDBRANCH   7   9
ENDBRANCH   5   6
BRANCH   5  43
ATOM     43  CB  TYR     5       7.890  -6.780  10.463  1.00  0.00     0.060 C 
BRANCH  43  44
ATOM     44  CG  TYR     5       6.376  -6.602  10.262  1.00  0.00    -0.020 A 
ATOM     45  CD2 TYR     5       5.858  -6.323   9.004  1.00  0.00    -0.002 A 
ATOM     46  CE2 TYR     5       4.486  -6.171   8.830  1.00  0.00     0.027 A 
ATOM     47  CZ  TYR     5       3.632  -6.298   9.914  1.00  0.00     0.131 A 
ATOM     48  CE1 TYR     5       4.141  -6.595  11.174  1.00  0.00     0.027 A 
ATOM     49  OH  TYR     5       2.317  -6.015   9.782  1.00  0.00    -0.190 OA
ATOM     50  CD1 TYR     5       5.517  -6.738  11.347  1.00  0.00    -0.002 A 
ENDBRANCH  43  44
ENDBRANCH   5  43
ENDBRANCH   3   5
ENDBRANCH   1   2
BRANCH   1  51
ATOM     51  CB  ARG     6      11.737  -9.825  10.837  1.00  0.00     0.036 C 
BRANCH  51  52
ATOM     52  CG  ARG     6      11.661 -10.837  11.983  1.00  0.00     0.029 C 
BRANCH  52  53
ATOM     53  CD  ARG     6      12.868 -10.688  12.905  1.00  0.00     0.145 C 
BRANCH  53  54
ATOM     54  NE  ARG     6      14.106 -11.097  12.222  1.00  0.00    -0.083 NA
ATOM     55  CZ  ARG     6      15.215 -10.344  12.097  1.00  0.00     0.782 C 
ATOM     56  NH2 ARG     6      16.255 -10.781  11.384  1.00  0.00     0.063 N 
ATOM     57  NH1 ARG     6      15.255  -9.119  12.610  1.00  0.00     0.063 N 
ENDBRANCH  53  54
ENDBRANCH  52  53
ENDBRANCH  51  52
ENDBRANCH   1  51
BRANCH   1  58
ATOM     58  C   ARG     6      12.679  -7.592  10.462  1.00  0.00     0.274 C 
ATOM     59  N   ASN     7      13.437  -8.321   9.648  1.00  0.00    -0.228 NA
ATOM     60  O   ARG     6      12.748  -6.368  10.587  1.00  0.00    -0.268 OA
BRANCH  59  61
ATOM     61  CA  ASN     7      14.408  -7.738   8.698  1.00  0.00     0.196 C 
BRANCH  61  62
ATOM     62  C   ASN     7      14.053  -8.086   7.239  1.00  0.00     0.275 C 
ATOM     63  N   PHE     8      15.043  -8.002   6.337  1.00  0.00    -0.228 NA
ATOM     64  O   ASN     7      13.061  -8.765   7.057  1.00  0.00    -0.268 OA
BRANCH  63  65
ATOM     65  CA  PHE     8      14.921  -8.378   4.907  1.00  0.00     0.191 C 
BRANCH  65  66
ATOM     66  CB  PHE     8      15.983  -7.604   4.115  1.00  0.00     0.060 C 
BRANCH  66  67
ATOM     67  CG  PHE     8      15.416  -6.703   3.002  1.00  0.00    -0.020 A 
ATOM     68  CD1 PHE     8      14.620  -7.251   2.006  1.00  0.00    -0.004 A 
ATOM     69  CE1 PHE     8      14.191  -6.456   0.943  1.00  0.00    -0.000 A 
ATOM     70  CZ  PHE     8      14.551  -5.119   0.896  1.00  0.00    -0.000 A 
ATOM     71  CE2 PHE     8      15.338  -4.564   1.900  1.00  0.00    -0.000 A 
ATOM     72  CD2 PHE     8      15.766  -5.359   2.963  1.00  0.00    -0.004 A 
ENDBRANCH  66  67
ENDBRANCH  65  66
BRANCH  65  73
ATOM     73  C   PHE     8      14.989  -9.895   4.623  1.00  0.00     0.275 C 
ATOM     74  N   TRP     9      16.071 -10.535   5.071  1.00  0.00    -0.228 NA
ATOM     75  O   PHE     8      14.221 -10.424   3.816  1.00  0.00    -0.268 OA
BRANCH  74  76
ATOM     76  CA  TRP     9      16.209 -12.009   4.977  1.00  0.00     0.191 C 
BRANCH  76  77
ATOM     77  CB  TRP     9      17.647 -12.398   5.361  1.00  0.00     0.062 C 
BRANCH  77  78
ATOM     78  CG  TRP     9      18.294 -11.418   6.339  1.00  0.00     0.001 A 
ATOM     79  CD1 TRP     9      18.013 -11.306   7.634  1.00  0.00     0.095 A 
ATOM     80  NE1 TRP     9      18.530 -10.180   8.109  1.00  0.00    -0.244 NA
ATOM     81  CE2 TRP     9      19.175  -9.545   7.142  1.00  0.00     0.081 A 
ATOM     82  CD2 TRP     9      19.038 -10.296   5.985  1.00  0.00     0.015 A 
ATOM     83  CZ2 TRP     9      19.807  -8.304   7.082  1.00  0.00     0.019 A 
ATOM     84  CE3 TRP     9      19.508  -9.821   4.769  1.00  0.00     0.001 A 
ATOM     85  CZ3 TRP     9      20.127  -8.578   4.705  1.00  0.00     0.000 A 
ATOM     86  CH2 TRP     9      20.291  -7.831   5.871  1.00  0.00     0.002 A 
ENDBRANCH  77  78
ENDBRANCH  76  77
BRANCH  76  87
ATOM     87  C   TRP     9      15.166 -12.805   5.794  1.00  0.00     0.275 C 
ATOM     88  O   TRP     9      14.845 -12.448   6.923  1.00  0.00    -0.268 OA
ATOM     89  N   GLY    10      14.577 -13.821   5.165  1.00  0.00    -0.226 NA
BRANCH  89  90
ATOM     90  CA  GLY    10      13.519 -14.678   5.765  1.00  0.00     0.218 C 
BRANCH  90  91
ATOM     91  C   GLY    10      12.073 -14.379   5.336  1.00  0.00     0.277 C 
ATOM     92  N   CYS    11      11.405 -15.420   4.841  1.00  0.00    -0.228 NA
ATOM     93  O   GLY    10      11.659 -13.226   5.300  1.00  0.00    -0.268 OA
BRANCH  92  94
ATOM     94  CA  CYS    11      10.001 -15.426   4.374  1.00  0.00     0.198 C 
BRANCH  94  95
ATOM     95  C   CYS    11       9.183 -16.319   5.328  1.00  0.00     0.275 C 
ATOM     96  O   CYS    11       8.288 -17.019   4.868  1.00  0.00    -0.268 OA
ATOM     97  N   GLY    12       9.378 -16.118   6.623  1.00  0.00    -0.225 NA
BRANCH  97  98
ATOM     98  CA  GLY    12       8.668 -16.873   7.667  1.00  0.00     0.226 C 
BRANCH  98  99
ATOM     99  C   GLY    12       7.899 -15.862   8.549  1.00  0.00     0.211 C 
ATOM    100  O1  GLY    12       8.164 -15.870   9.778  1.00  0.00    -0.646 OA
ATOM    101  O2  GLY    12       7.104 -15.088   7.986  1.00  0.00    -0.646 OA
ENDBRANCH  98  99
ENDBRANCH  97  98
ENDBRANCH  94  95
BRANCH  94 102
ATOM    102  CB  CYS    11       9.905 -16.092   3.004  1.00  0.00     0.103 C 
ATOM    103  SG  CYS    11       9.248 -15.051   1.644  1.00  0.00    -0.080 SA
ENDBRANCH  94 102
ENDBRANCH  92  94
ENDBRANCH  90  91
ENDBRANCH  89  90
ENDBRANCH  76  87
ENDBRANCH  74  76
ENDBRANCH  65  73
ENDBRANCH  63  65
ENDBRANCH  61  62
BRANCH  61 104
ATOM    104  CB  ASN     7      15.841  -8.173   9.030  1.00  0.00     0.126 C 
BRANCH 104 105
ATOM    105  CG  ASN     7      16.636  -7.176   9.893  1.00  0.00     0.276 C 
ATOM    106  ND2 ASN     7      17.828  -7.570  10.279  1.00  0.00    -0.107 N 
ATOM    107  OD1 ASN     7      16.187  -6.138  10.362  1.00  0.00    -0.269 OA
ENDBRANCH 104 105
ENDBRANCH  61 104
ENDBRANCH  59  61
ENDBRANCH   1  58
TORSDOF 42
ENDMDL
MODEL 7
REMARK VINA RESULT:      -4.8      4.957      9.876
REMARK WARNING: 32 MAX_TORS EXCEEDED!!!
REMARK  42 active torsions:
REMARK  status: ('A' for Active; 'I' for Inactive)
REMARK    1  A    between atoms: CA_2  and  CB_3 
REMARK    2  A    between atoms: CA_2  and  C_11 
REMARK    3  A    between atoms: CB_3  and  CG_4 
REMARK       I    between atoms: C_11  and  N_13 
REMARK    4  A    between atoms: N_13  and  CA_14 
REMARK    5  A    between atoms: CA_14  and  CB_15 
REMARK    6  A    between atoms: CA_14  and  C_19 
REMARK    7  A    between atoms: CB_15  and  CG_16 
REMARK       I    between atoms: C_19  and  N_21 
REMARK    8  A    between atoms: CA_22  and  C_26 
REMARK       I    between atoms: C_26  and  N_28 
REMARK    9  A    between atoms: N_28  and  CA_29 
REMARK   10  A    between atoms: CA_29  and  C_35 
REMARK   11  A    between atoms: CA_29  and  CB_30 
REMARK   12  A    between atoms: CB_30  and  CG_31 
REMARK   13  A    between atoms: CG_31  and  CD_32 
REMARK       I    between atoms: C_35  and  N_37 
REMARK   14  A    between atoms: N_37  and  CA_38 
REMARK   15  A    between atoms: CA_38  and  CB_39 
REMARK   16  A    between atoms: CA_38  and  C_47 
REMARK   17  A    between atoms: CB_39  and  CG_40 
REMARK       I    between atoms: C_47  and  N_49 
REMARK   18  A    between atoms: N_49  and  CA_50 
REMARK   19  A    between atoms: CA_50  and  CB_51 
REMARK   20  A    between atoms: CA_50  and  C_58 
REMARK   21  A    between atoms: CB_51  and  CG_52 
REMARK   22  A    between atoms: CG_52  and  CD_53 
REMARK   23  A    between atoms: CD_53  and  NE_54 
REMARK       I    between atoms: C_58  and  N_60 
REMARK   24  A    between atoms: N_60  and  CA_61 
REMARK   25  A    between atoms: CA_61  and  C_66 
REMARK   26  A    between atoms: CA_61  and  CB_62 
REMARK   27  A    between atoms: CB_62  and  CG_63 
REMARK       I    between atoms: C_66  and  N_68 
REMARK   28  A    between atoms: N_68  and  CA_69 
REMARK   29  A    between atoms: CA_69  and  CB_70 
REMARK   30  A    between atoms: CA_69  and  C_77 
REMARK   31  A    between atoms: CB_70  and  CG_71 
REMARK       I    between atoms: C_77  and  N_79 
REMARK   32  A    between atoms: N_79  and  CA_80 
REMARK   33  A    between atoms: CA_80  and  CB_81 
REMARK   34  A    between atoms: CA_80  and  C_91 
REMARK   35  A    between atoms: CB_81  and  CG_82 
REMARK       I    between atoms: C_91  and  N_93 
REMARK   36  A    between atoms: N_93  and  CA_94 
REMARK   37  A    between atoms: CA_94  and  C_95 
REMARK       I    between atoms: C_95  and  N_97 
REMARK   38  A    between atoms: N_97  and  CA_98 
REMARK   39  A    between atoms: CA_98  and  C_101 
REMARK   40  A    between atoms: CA_98  and  CB_99 
REMARK       I    between atoms: C_101  and  N_103 
REMARK   41  A    between atoms: N_103  and  CA_104 
REMARK   42  A    between atoms: CA_104  and  C_105 
ROOT
ATOM      1  CA  ARG     6      -7.068 -19.785   4.468  1.00  0.00     0.186 C 
ENDROOT
BRANCH   1   2
ATOM      2  N   ARG     6      -8.376 -19.306   4.972  1.00  0.00    -0.229 NA
ATOM      3  C   TYR     5      -8.751 -18.023   4.889  1.00  0.00     0.275 C 
ATOM      4  O   TYR     5      -8.045 -17.163   4.362  1.00  0.00    -0.268 OA
BRANCH   3   5
ATOM      5  CA  TYR     5     -10.165 -17.673   5.383  1.00  0.00     0.191 C 
BRANCH   5   6
ATOM      6  N   TYR     5     -10.789 -16.547   4.643  1.00  0.00    -0.228 NA
ATOM      7  C   GLU     4     -11.479 -15.565   5.247  1.00  0.00     0.274 C 
ATOM      8  O   GLU     4     -11.528 -15.444   6.464  1.00  0.00    -0.268 OA
BRANCH   7   9
ATOM      9  CA  GLU     4     -11.936 -14.403   4.341  1.00  0.00     0.187 C 
BRANCH   9  10
ATOM     10  CB  GLU     4     -12.506 -14.960   3.026  1.00  0.00     0.045 C 
BRANCH  10  11
ATOM     11  CG  GLU     4     -11.522 -15.051   1.839  1.00  0.00     0.100 C 
BRANCH  11  12
ATOM     12  CD  GLU     4     -12.189 -15.019   0.465  1.00  0.00     0.185 C 
ATOM     13  OE1 GLU     4     -12.831 -13.980   0.158  1.00  0.00    -0.647 OA
ATOM     14  OE2 GLU     4     -12.465 -16.121  -0.051  1.00  0.00    -0.647 OA
ENDBRANCH  11  12
ENDBRANCH  10  11
ENDBRANCH   9  10
BRANCH   9  15
ATOM     15  N   GLU     4     -10.853 -13.453   4.020  1.00  0.00    -0.229 NA
ATOM     16  C   PRO     3     -10.523 -12.339   4.662  1.00  0.00     0.272 C 
ATOM     17  O   PRO     3     -10.827 -12.119   5.835  1.00  0.00    -0.269 OA
BRANCH  16  18
ATOM     18  CA  PRO     3      -9.341 -11.570   4.069  1.00  0.00     0.165 C 
ATOM     19  N   PRO     3      -9.153 -10.206   4.609  1.00  0.00    -0.312 N 
ATOM     20  CD  PRO     3      -7.704  -9.941   4.801  1.00  0.00     0.105 C 
ATOM     21  C   ASP     2     -10.146  -9.309   4.746  1.00  0.00     0.257 C 
ATOM     22  CG  PRO     3      -7.008 -11.141   4.141  1.00  0.00     0.027 C 
ATOM     23  CB  PRO     3      -8.010 -12.279   4.307  1.00  0.00     0.034 C 
ATOM     24  O   ASP     2     -11.251  -9.512   4.220  1.00  0.00    -0.270 OA
BRANCH  21  25
ATOM     25  CA  ASP     2      -9.818  -7.882   5.242  1.00  0.00     0.195 C 
BRANCH  25  26
ATOM     26  CB  ASP     2     -10.661  -7.356   6.433  1.00  0.00     0.132 C 
BRANCH  26  27
ATOM     27  CG  ASP     2     -10.262  -8.078   7.734  1.00  0.00     0.188 C 
ATOM     28  OD2 ASP     2      -9.029  -8.112   7.978  1.00  0.00    -0.647 OA
ATOM     29  OD1 ASP     2     -11.012  -9.011   8.114  1.00  0.00    -0.647 OA
ENDBRANCH  26  27
ENDBRANCH  25  26
BRANCH  25  30
ATOM     30  N   ASP     2     -10.064  -6.866   4.205  1.00  0.00    -0.228 NA
ATOM     31  C   TYR     1      -9.209  -6.440   3.305  1.00  0.00     0.289 C 
ATOM     32  O   TYR     1      -8.085  -6.887   3.051  1.00  0.00    -0.268 OA
BRANCH  31  33
ATOM     33  CA  TYR     1      -9.739  -5.231   2.540  1.00  0.00     0.385 C 
ATOM     34  N   TYR     1     -10.990  -5.632   1.874  1.00  0.00     0.626 N 
BRANCH  33  35
ATOM     35  CB  TYR     1      -9.949  -4.108   3.552  1.00  0.00     0.075 C 
BRANCH  35  36
ATOM     36  CG  TYR     1      -8.799  -3.089   3.566  1.00  0.00    -0.019 A 
ATOM     37  CD2 TYR     1      -8.563  -2.281   4.668  1.00  0.00    -0.002 A 
ATOM     38  CE2 TYR     1      -7.440  -1.468   4.709  1.00  0.00     0.027 A 
ATOM     39  CZ  TYR     1      -6.560  -1.470   3.628  1.00  0.00     0.131 A 
ATOM     40  CE1 TYR     1      -6.823  -2.247   2.515  1.00  0.00     0.027 A 
ATOM     41  OH  TYR     1      -5.373  -0.837   3.719  1.00  0.00    -0.190 OA
ATOM     42  CD1 TYR     1      -7.946  -3.060   2.473  1.00  0.00    -0.002 A 
ENDBRANCH  35  36
ENDBRANCH  33  35
ENDBRANCH  31  33
ENDBRANCH  25  30
ENDBRANCH  21  25
ENDBRANCH  16  18
ENDBRANCH   9  15
ENDBRANCH   7   9
ENDBRANCH   5   6
BRANCH   5  43
ATOM     43  CB  TYR     5     -11.083 -18.907   5.339  1.00  0.00     0.060 C 
BRANCH  43  44
ATOM     44  CG  TYR     5     -11.924 -18.963   4.053  1.00  0.00    -0.020 A 
ATOM     45  CD2 TYR     5     -13.233 -18.496   4.044  1.00  0.00    -0.002 A 
ATOM     46  CE2 TYR     5     -13.984 -18.544   2.873  1.00  0.00     0.027 A 
ATOM     47  CZ  TYR     5     -13.427 -19.058   1.713  1.00  0.00     0.131 A 
ATOM     48  CE1 TYR     5     -12.112 -19.511   1.709  1.00  0.00     0.027 A 
ATOM     49  OH  TYR     5     -14.190 -19.237   0.613  1.00  0.00    -0.190 OA
ATOM     50  CD1 TYR     5     -11.364 -19.470   2.886  1.00  0.00    -0.002 A 
ENDBRANCH  43  44
ENDBRANCH   5  43
ENDBRANCH   3   5
ENDBRANCH   1   2
BRANCH   1  51
ATOM     51  CB  ARG     6      -6.142 -20.264   5.581  1.00  0.00     0.036 C 
BRANCH  51  52
ATOM     52  CG  ARG     6      -5.063 -19.247   5.963  1.00  0.00     0.029 C 
BRANCH  52  53
ATOM     53  CD  ARG     6      -4.735 -19.354   7.450  1.00  0.00     0.145 C 
BRANCH  53  54
ATOM     54  NE  ARG     6      -3.473 -20.083   7.661  1.00  0.00    -0.083 NA
ATOM     55  CZ  ARG     6      -3.272 -21.047   8.579  1.00  0.00     0.782 C 
ATOM     56  NH2 ARG     6      -2.062 -21.586   8.742  1.00  0.00     0.063 N 
ATOM     57  NH1 ARG     6      -4.256 -21.414   9.393  1.00  0.00     0.063 N 
ENDBRANCH  53  54
ENDBRANCH  52  53
ENDBRANCH  51  52
ENDBRANCH   1  51
BRANCH   1  58
ATOM     58  C   ARG     6      -7.210 -20.953   3.483  1.00  0.00     0.274 C 
ATOM     59  N   ASN     7      -6.072 -21.437   2.994  1.00  0.00    -0.228 NA
ATOM     60  O   ARG     6      -8.335 -21.367   3.200  1.00  0.00    -0.268 OA
BRANCH  59  61
ATOM     61  CA  ASN     7      -6.002 -22.620   2.112  1.00  0.00     0.196 C 
BRANCH  61  62
ATOM     62  C   ASN     7      -4.772 -23.492   2.428  1.00  0.00     0.275 C 
ATOM     63  N   PHE     8      -3.773 -22.910   3.108  1.00  0.00    -0.228 NA
ATOM     64  O   ASN     7      -4.925 -24.698   2.400  1.00  0.00    -0.268 OA
BRANCH  63  65
ATOM     65  CA  PHE     8      -2.550 -23.604   3.579  1.00  0.00     0.191 C 
BRANCH  65  66
ATOM     66  CB  PHE     8      -1.596 -23.760   2.386  1.00  0.00     0.060 C 
BRANCH  66  67
ATOM     67  CG  PHE     8      -0.969 -25.160   2.252  1.00  0.00    -0.020 A 
ATOM     68  CD1 PHE     8       0.180 -25.475   2.965  1.00  0.00    -0.004 A 
ATOM     69  CE1 PHE     8       0.805 -26.706   2.765  1.00  0.00    -0.000 A 
ATOM     70  CZ  PHE     8       0.265 -27.614   1.868  1.00  0.00    -0.000 A 
ATOM     71  CE2 PHE     8      -0.894 -27.306   1.163  1.00  0.00    -0.000 A 
ATOM     72  CD2 PHE     8      -1.518 -26.075   1.363  1.00  0.00    -0.004 A 
ENDBRANCH  66  67
ENDBRANCH  65  66
BRANCH  65  73
ATOM     73  C   PHE     8      -1.849 -22.943   4.788  1.00  0.00     0.275 C 
ATOM     74  N   TRP     9      -1.107 -21.865   4.527  1.00  0.00    -0.228 NA
ATOM     75  O   PHE     8      -1.774 -23.525   5.873  1.00  0.00    -0.268 OA
BRANCH  74  76
ATOM     76  CA  TRP     9      -0.480 -21.061   5.605  1.00  0.00     0.191 C 
BRANCH  76  77
ATOM     77  CB  TRP     9       1.044 -21.251   5.543  1.00  0.00     0.062 C 
BRANCH  77  78
ATOM     78  CG  TRP     9       1.624 -21.894   6.802  1.00  0.00     0.001 A 
ATOM     79  CD1 TRP     9       2.320 -21.270   7.748  1.00  0.00     0.095 A 
ATOM     80  NE1 TRP     9       2.913 -22.162   8.530  1.00  0.00    -0.244 NA
ATOM     81  CE2 TRP     9       2.601 -23.384   8.124  1.00  0.00     0.081 A 
ATOM     82  CD2 TRP     9       1.786 -23.260   7.010  1.00  0.00     0.015 A 
ATOM     83  CZ2 TRP     9       3.017 -24.652   8.531  1.00  0.00     0.019 A 
ATOM     84  CE3 TRP     9       1.394 -24.377   6.288  1.00  0.00     0.001 A 
ATOM     85  CZ3 TRP     9       1.819 -25.641   6.684  1.00  0.00     0.000 A 
ATOM     86  CH2 TRP     9       2.616 -25.773   7.819  1.00  0.00     0.002 A 
ENDBRANCH  77  78
ENDBRANCH  76  77
BRANCH  76  87
ATOM     87  C   TRP     9      -0.869 -19.566   5.599  1.00  0.00     0.275 C 
ATOM     88  O   TRP     9      -1.779 -19.154   4.886  1.00  0.00    -0.268 OA
ATOM     89  N   GLY    10      -0.234 -18.789   6.475  1.00  0.00    -0.226 NA
BRANCH  89  90
ATOM     90  CA  GLY    10      -0.498 -17.334   6.652  1.00  0.00     0.218 C 
BRANCH  90  91
ATOM     91  C   GLY    10      -1.281 -16.931   7.912  1.00  0.00     0.277 C 
ATOM     92  N   CYS    11      -1.521 -15.626   8.032  1.00  0.00    -0.228 NA
ATOM     93  O   GLY    10      -1.496 -17.748   8.801  1.00  0.00    -0.268 OA
BRANCH  92  94
ATOM     94  CA  CYS    11      -2.268 -14.964   9.126  1.00  0.00     0.198 C 
BRANCH  94  95
ATOM     95  C   CYS    11      -3.661 -14.580   8.589  1.00  0.00     0.275 C 
ATOM     96  O   CYS    11      -3.783 -13.555   7.927  1.00  0.00    -0.268 OA
ATOM     97  N   GLY    12      -4.679 -15.290   9.053  1.00  0.00    -0.225 NA
BRANCH  97  98
ATOM     98  CA  GLY    12      -6.074 -15.044   8.656  1.00  0.00     0.226 C 
BRANCH  98  99
ATOM     99  C   GLY    12      -6.443 -16.061   7.551  1.00  0.00     0.211 C 
ATOM    100  O1  GLY    12      -5.894 -15.901   6.431  1.00  0.00    -0.646 OA
ATOM    101  O2  GLY    12      -7.224 -16.984   7.848  1.00  0.00    -0.646 OA
ENDBRANCH  98  99
ENDBRANCH  97  98
ENDBRANCH  94  95
BRANCH  94 102
ATOM    102  CB  CYS    11      -1.593 -13.647   9.500  1.00  0.00     0.103 C 
ATOM    103  SG  CYS    11      -0.758 -13.603  11.133  1.00  0.00    -0.080 SA
ENDBRANCH  94 102
ENDBRANCH  92  94
ENDBRANCH  90  91
ENDBRANCH  89  90
ENDBRANCH  76  87
ENDBRANCH  74  76
ENDBRANCH  65  73
ENDBRANCH  63  65
ENDBRANCH  61  62
BRANCH  61 104
ATOM    104  CB  ASN     7      -6.017 -22.213   0.633  1.00  0.00     0.126 C 
BRANCH 104 105
ATOM    105  CG  ASN     7      -7.327 -22.527  -0.113  1.00  0.00     0.276 C 
ATOM    106  ND2 ASN     7      -7.426 -23.735  -0.620  1.00  0.00    -0.107 N 
ATOM    107  OD1 ASN     7      -8.191 -21.706  -0.393  1.00  0.00    -0.269 OA
ENDBRANCH 104 105
ENDBRANCH  61 104
ENDBRANCH  59  61
ENDBRANCH   1  58
TORSDOF 42
ENDMDL
MODEL 8
REMARK VINA RESULT:      -4.8      3.389     12.591
REMARK WARNING: 32 MAX_TORS EXCEEDED!!!
REMARK  42 active torsions:
REMARK  status: ('A' for Active; 'I' for Inactive)
REMARK    1  A    between atoms: CA_2  and  CB_3 
REMARK    2  A    between atoms: CA_2  and  C_11 
REMARK    3  A    between atoms: CB_3  and  CG_4 
REMARK       I    between atoms: C_11  and  N_13 
REMARK    4  A    between atoms: N_13  and  CA_14 
REMARK    5  A    between atoms: CA_14  and  CB_15 
REMARK    6  A    between atoms: CA_14  and  C_19 
REMARK    7  A    between atoms: CB_15  and  CG_16 
REMARK       I    between atoms: C_19  and  N_21 
REMARK    8  A    between atoms: CA_22  and  C_26 
REMARK       I    between atoms: C_26  and  N_28 
REMARK    9  A    between atoms: N_28  and  CA_29 
REMARK   10  A    between atoms: CA_29  and  C_35 
REMARK   11  A    between atoms: CA_29  and  CB_30 
REMARK   12  A    between atoms: CB_30  and  CG_31 
REMARK   13  A    between atoms: CG_31  and  CD_32 
REMARK       I    between atoms: C_35  and  N_37 
REMARK   14  A    between atoms: N_37  and  CA_38 
REMARK   15  A    between atoms: CA_38  and  CB_39 
REMARK   16  A    between atoms: CA_38  and  C_47 
REMARK   17  A    between atoms: CB_39  and  CG_40 
REMARK       I    between atoms: C_47  and  N_49 
REMARK   18  A    between atoms: N_49  and  CA_50 
REMARK   19  A    between atoms: CA_50  and  CB_51 
REMARK   20  A    between atoms: CA_50  and  C_58 
REMARK   21  A    between atoms: CB_51  and  CG_52 
REMARK   22  A    between atoms: CG_52  and  CD_53 
REMARK   23  A    between atoms: CD_53  and  NE_54 
REMARK       I    between atoms: C_58  and  N_60 
REMARK   24  A    between atoms: N_60  and  CA_61 
REMARK   25  A    between atoms: CA_61  and  C_66 
REMARK   26  A    between atoms: CA_61  and  CB_62 
REMARK   27  A    between atoms: CB_62  and  CG_63 
REMARK       I    between atoms: C_66  and  N_68 
REMARK   28  A    between atoms: N_68  and  CA_69 
REMARK   29  A    between atoms: CA_69  and  CB_70 
REMARK   30  A    between atoms: CA_69  and  C_77 
REMARK   31  A    between atoms: CB_70  and  CG_71 
REMARK       I    between atoms: C_77  and  N_79 
REMARK   32  A    between atoms: N_79  and  CA_80 
REMARK   33  A    between atoms: CA_80  and  CB_81 
REMARK   34  A    between atoms: CA_80  and  C_91 
REMARK   35  A    between atoms: CB_81  and  CG_82 
REMARK       I    between atoms: C_91  and  N_93 
REMARK   36  A    between atoms: N_93  and  CA_94 
REMARK   37  A    between atoms: CA_94  and  C_95 
REMARK       I    between atoms: C_95  and  N_97 
REMARK   38  A    between atoms: N_97  and  CA_98 
REMARK   39  A    between atoms: CA_98  and  C_101 
REMARK   40  A    between atoms: CA_98  and  CB_99 
REMARK       I    between atoms: C_101  and  N_103 
REMARK   41  A    between atoms: N_103  and  CA_104 
REMARK   42  A    between atoms: CA_104  and  C_105 
ROOT
ATOM      1  CA  ARG     6      -9.944 -22.579   4.650  1.00  0.00     0.186 C 
ENDROOT
BRANCH   1   2
ATOM      2  N   ARG     6      -8.521 -22.232   4.424  1.00  0.00    -0.229 NA
ATOM      3  C   TYR     5      -8.139 -21.032   3.968  1.00  0.00     0.275 C 
ATOM      4  O   TYR     5      -8.944 -20.129   3.735  1.00  0.00    -0.268 OA
BRANCH   3   5
ATOM      5  CA  TYR     5      -6.628 -20.776   3.848  1.00  0.00     0.191 C 
BRANCH   5   6
ATOM      6  N   TYR     5      -6.048 -21.239   2.561  1.00  0.00    -0.228 NA
ATOM      7  C   GLU     4      -5.267 -22.327   2.457  1.00  0.00     0.274 C 
ATOM      8  O   GLU     4      -5.086 -23.101   3.388  1.00  0.00    -0.268 OA
BRANCH   7   9
ATOM      9  CA  GLU     4      -4.870 -22.741   1.026  1.00  0.00     0.187 C 
BRANCH   9  10
ATOM     10  CB  GLU     4      -6.123 -22.819   0.139  1.00  0.00     0.045 C 
BRANCH  10  11
ATOM     11  CG  GLU     4      -6.794 -24.206   0.024  1.00  0.00     0.100 C 
BRANCH  11  12
ATOM     12  CD  GLU     4      -7.911 -24.450   1.038  1.00  0.00     0.185 C 
ATOM     13  OE1 GLU     4      -7.597 -25.008   2.121  1.00  0.00    -0.647 OA
ATOM     14  OE2 GLU     4      -9.071 -24.531   0.585  1.00  0.00    -0.647 OA
ENDBRANCH  11  12
ENDBRANCH  10  11
ENDBRANCH   9  10
BRANCH   9  15
ATOM     15  N   GLU     4      -4.170 -24.039   0.968  1.00  0.00    -0.229 NA
ATOM     16  C   PRO     3      -3.234 -24.429   0.111  1.00  0.00     0.272 C 
ATOM     17  O   PRO     3      -2.540 -23.642  -0.536  1.00  0.00    -0.269 OA
BRANCH  16  18
ATOM     18  CA  PRO     3      -2.707 -25.850   0.320  1.00  0.00     0.165 C 
ATOM     19  N   PRO     3      -2.492 -26.231   1.732  1.00  0.00    -0.312 N 
ATOM     20  CD  PRO     3      -2.936 -27.633   1.944  1.00  0.00     0.105 C 
ATOM     21  C   ASP     2      -1.846 -25.463   2.628  1.00  0.00     0.257 C 
ATOM     22  CG  PRO     3      -3.230 -28.155   0.529  1.00  0.00     0.027 C 
ATOM     23  CB  PRO     3      -3.657 -26.907  -0.238  1.00  0.00     0.034 C 
ATOM     24  O   ASP     2      -1.203 -24.471   2.254  1.00  0.00    -0.270 OA
BRANCH  21  25
ATOM     25  CA  ASP     2      -1.604 -26.001   4.057  1.00  0.00     0.195 C 
BRANCH  25  26
ATOM     26  CB  ASP     2      -2.837 -26.042   4.996  1.00  0.00     0.132 C 
BRANCH  26  27
ATOM     27  CG  ASP     2      -2.902 -27.389   5.739  1.00  0.00     0.188 C 
ATOM     28  OD2 ASP     2      -3.934 -28.075   5.527  1.00  0.00    -0.647 OA
ATOM     29  OD1 ASP     2      -2.313 -27.451   6.848  1.00  0.00    -0.647 OA
ENDBRANCH  26  27
ENDBRANCH  25  26
BRANCH  25  30
ATOM     30  N   ASP     2      -0.657 -25.161   4.811  1.00  0.00    -0.228 NA
ATOM     31  C   TYR     1       0.375 -25.575   5.508  1.00  0.00     0.289 C 
ATOM     32  O   TYR     1       0.845 -26.716   5.568  1.00  0.00    -0.268 OA
BRANCH  31  33
ATOM     33  CA  TYR     1       0.997 -24.451   6.331  1.00  0.00     0.385 C 
ATOM     34  N   TYR     1       1.649 -23.517   5.397  1.00  0.00     0.626 N 
BRANCH  33  35
ATOM     35  CB  TYR     1      -0.128 -23.792   7.126  1.00  0.00     0.075 C 
BRANCH  35  36
ATOM     36  CG  TYR     1       0.381 -22.763   8.147  1.00  0.00    -0.019 A 
ATOM     37  CD2 TYR     1       1.672 -22.821   8.649  1.00  0.00    -0.002 A 
ATOM     38  CE2 TYR     1       2.149 -21.805   9.464  1.00  0.00     0.027 A 
ATOM     39  CZ  TYR     1       1.314 -20.733   9.775  1.00  0.00     0.131 A 
ATOM     40  CE1 TYR     1       0.014 -20.703   9.304  1.00  0.00     0.027 A 
ATOM     41  OH  TYR     1       1.808 -19.649  10.405  1.00  0.00    -0.190 OA
ATOM     42  CD1 TYR     1      -0.464 -21.719   8.489  1.00  0.00    -0.002 A 
ENDBRANCH  35  36
ENDBRANCH  33  35
ENDBRANCH  31  33
ENDBRANCH  25  30
ENDBRANCH  21  25
ENDBRANCH  16  18
ENDBRANCH   9  15
ENDBRANCH   7   9
ENDBRANCH   5   6
BRANCH   5  43
ATOM     43  CB  TYR     5      -6.303 -19.289   4.068  1.00  0.00     0.060 C 
BRANCH  43  44
ATOM     44  CG  TYR     5      -5.097 -19.086   5.001  1.00  0.00    -0.020 A 
ATOM     45  CD2 TYR     5      -5.144 -18.148   6.024  1.00  0.00    -0.002 A 
ATOM     46  CE2 TYR     5      -4.051 -17.977   6.867  1.00  0.00     0.027 A 
ATOM     47  CZ  TYR     5      -2.910 -18.745   6.688  1.00  0.00     0.131 A 
ATOM     48  CE1 TYR     5      -2.862 -19.699   5.678  1.00  0.00     0.027 A 
ATOM     49  OH  TYR     5      -1.798 -18.490   7.410  1.00  0.00    -0.190 OA
ATOM     50  CD1 TYR     5      -3.956 -19.862   4.828  1.00  0.00    -0.002 A 
ENDBRANCH  43  44
ENDBRANCH   5  43
ENDBRANCH   3   5
ENDBRANCH   1   2
BRANCH   1  51
ATOM     51  CB  ARG     6     -10.412 -23.750   3.792  1.00  0.00     0.036 C 
BRANCH  51  52
ATOM     52  CG  ARG     6     -11.605 -23.415   2.893  1.00  0.00     0.029 C 
BRANCH  52  53
ATOM     53  CD  ARG     6     -11.883 -21.915   2.917  1.00  0.00     0.145 C 
BRANCH  53  54
ATOM     54  NE  ARG     6     -13.134 -21.621   3.635  1.00  0.00    -0.083 NA
ATOM     55  CZ  ARG     6     -13.302 -20.641   4.543  1.00  0.00     0.782 C 
ATOM     56  NH2 ARG     6     -14.458 -20.514   5.199  1.00  0.00     0.063 N 
ATOM     57  NH1 ARG     6     -12.290 -19.840   4.861  1.00  0.00     0.063 N 
ENDBRANCH  53  54
ENDBRANCH  52  53
ENDBRANCH  51  52
ENDBRANCH   1  51
BRANCH   1  58
ATOM     58  C   ARG     6     -10.229 -22.962   6.108  1.00  0.00     0.274 C 
ATOM     59  N   ASN     7      -9.179 -23.373   6.813  1.00  0.00    -0.228 NA
ATOM     60  O   ARG     6     -11.381 -22.876   6.537  1.00  0.00    -0.268 OA
BRANCH  59  61
ATOM     61  CA  ASN     7      -9.240 -23.690   8.255  1.00  0.00     0.196 C 
BRANCH  61  62
ATOM     62  C   ASN     7      -8.979 -22.442   9.121  1.00  0.00     0.275 C 
ATOM     63  N   PHE     8      -8.088 -21.555   8.655  1.00  0.00    -0.228 NA
ATOM     64  O   ASN     7      -9.834 -22.142   9.932  1.00  0.00    -0.268 OA
BRANCH  63  65
ATOM     65  CA  PHE     8      -7.766 -20.257   9.298  1.00  0.00     0.191 C 
BRANCH  65  66
ATOM     66  CB  PHE     8      -6.267 -19.987   9.112  1.00  0.00     0.060 C 
BRANCH  66  67
ATOM     67  CG  PHE     8      -5.403 -21.255   8.983  1.00  0.00    -0.020 A 
ATOM     68  CD1 PHE     8      -5.004 -21.940  10.123  1.00  0.00    -0.004 A 
ATOM     69  CE1 PHE     8      -4.138 -23.027  10.012  1.00  0.00    -0.000 A 
ATOM     70  CZ  PHE     8      -3.693 -23.427   8.762  1.00  0.00    -0.000 A 
ATOM     71  CE2 PHE     8      -4.101 -22.751   7.618  1.00  0.00    -0.000 A 
ATOM     72  CD2 PHE     8      -4.967 -21.663   7.729  1.00  0.00    -0.004 A 
ENDBRANCH  66  67
ENDBRANCH  65  66
BRANCH  65  73
ATOM     73  C   PHE     8      -8.626 -19.063   8.824  1.00  0.00     0.275 C 
ATOM     74  N   TRP     9      -7.964 -18.013   8.336  1.00  0.00    -0.228 NA
ATOM     75  O   PHE     8      -9.822 -18.988   9.116  1.00  0.00    -0.268 OA
BRANCH  74  76
ATOM     76  CA  TRP     9      -8.664 -16.852   7.733  1.00  0.00     0.191 C 
BRANCH  76  77
ATOM     77  CB  TRP     9      -8.076 -15.558   8.321  1.00  0.00     0.062 C 
BRANCH  77  78
ATOM     78  CG  TRP     9      -6.698 -15.755   8.950  1.00  0.00     0.001 A 
ATOM     79  CD1 TRP     9      -6.454 -16.273  10.150  1.00  0.00     0.095 A 
ATOM     80  NE1 TRP     9      -5.197 -16.027  10.498  1.00  0.00    -0.244 NA
ATOM     81  CE2 TRP     9      -4.591 -15.362   9.526  1.00  0.00     0.081 A 
ATOM     82  CD2 TRP     9      -5.520 -15.153   8.519  1.00  0.00     0.015 A 
ATOM     83  CZ2 TRP     9      -3.323 -14.792   9.416  1.00  0.00     0.019 A 
ATOM     84  CE3 TRP     9      -5.208 -14.374   7.414  1.00  0.00     0.001 A 
ATOM     85  CZ3 TRP     9      -3.949 -13.793   7.310  1.00  0.00     0.000 A 
ATOM     86  CH2 TRP     9      -3.003 -14.022   8.307  1.00  0.00     0.002 A 
ENDBRANCH  77  78
ENDBRANCH  76  77
BRANCH  76  87
ATOM     87  C   TRP     9      -8.656 -16.830   6.188  1.00  0.00     0.275 C 
ATOM     88  O   TRP     9      -9.477 -17.478   5.545  1.00  0.00    -0.268 OA
ATOM     89  N   GLY    10      -7.785 -16.000   5.616  1.00  0.00    -0.226 NA
BRANCH  89  90
ATOM     90  CA  GLY    10      -7.655 -15.805   4.146  1.00  0.00     0.218 C 
BRANCH  90  91
ATOM     91  C   GLY    10      -8.620 -14.795   3.504  1.00  0.00     0.277 C 
ATOM     92  N   CYS    11      -8.829 -13.686   4.213  1.00  0.00    -0.228 NA
ATOM     93  O   GLY    10      -9.263 -15.095   2.504  1.00  0.00    -0.268 OA
BRANCH  92  94
ATOM     94  CA  CYS    11      -9.687 -12.542   3.828  1.00  0.00     0.198 C 
BRANCH  94  95
ATOM     95  C   CYS    11      -8.946 -11.243   4.203  1.00  0.00     0.275 C 
ATOM     96  O   CYS    11      -7.721 -11.245   4.238  1.00  0.00    -0.268 OA
ATOM     97  N   GLY    12      -9.701 -10.254   4.658  1.00  0.00    -0.225 NA
BRANCH  97  98
ATOM     98  CA  GLY    12      -9.153  -8.954   5.074  1.00  0.00     0.226 C 
BRANCH  98  99
ATOM     99  C   GLY    12      -9.179  -8.010   3.849  1.00  0.00     0.211 C 
ATOM    100  O1  GLY    12      -8.065  -7.675   3.372  1.00  0.00    -0.646 OA
ATOM    101  O2  GLY    12     -10.290  -7.676   3.398  1.00  0.00    -0.646 OA
ENDBRANCH  98  99
ENDBRANCH  97  98
ENDBRANCH  94  95
BRANCH  94 102
ATOM    102  CB  CYS    11     -10.966 -12.542   4.661  1.00  0.00     0.103 C 
ATOM    103  SG  CYS    11     -11.113 -13.869   5.919  1.00  0.00    -0.080 SA
ENDBRANCH  94 102
ENDBRANCH  92  94
ENDBRANCH  90  91
ENDBRANCH  89  90
ENDBRANCH  76  87
ENDBRANCH  74  76
ENDBRANCH  65  73
ENDBRANCH  63  65
ENDBRANCH  61  62
BRANCH  61 104
ATOM    104  CB  ASN     7      -8.267 -24.819   8.618  1.00  0.00     0.126 C 
BRANCH 104 105
ATOM    105  CG  ASN     7      -8.764 -25.771   9.721  1.00  0.00     0.276 C 
ATOM    106  ND2 ASN     7      -9.235 -26.928   9.314  1.00  0.00    -0.107 N 
ATOM    107  OD1 ASN     7      -8.892 -25.474  10.902  1.00  0.00    -0.269 OA
ENDBRANCH 104 105
ENDBRANCH  61 104
ENDBRANCH  59  61
ENDBRANCH   1  58
TORSDOF 42
ENDMDL
MODEL 9
REMARK VINA RESULT:      -4.8      2.927      7.933
REMARK WARNING: 32 MAX_TORS EXCEEDED!!!
REMARK  42 active torsions:
REMARK  status: ('A' for Active; 'I' for Inactive)
REMARK    1  A    between atoms: CA_2  and  CB_3 
REMARK    2  A    between atoms: CA_2  and  C_11 
REMARK    3  A    between atoms: CB_3  and  CG_4 
REMARK       I    between atoms: C_11  and  N_13 
REMARK    4  A    between atoms: N_13  and  CA_14 
REMARK    5  A    between atoms: CA_14  and  CB_15 
REMARK    6  A    between atoms: CA_14  and  C_19 
REMARK    7  A    between atoms: CB_15  and  CG_16 
REMARK       I    between atoms: C_19  and  N_21 
REMARK    8  A    between atoms: CA_22  and  C_26 
REMARK       I    between atoms: C_26  and  N_28 
REMARK    9  A    between atoms: N_28  and  CA_29 
REMARK   10  A    between atoms: CA_29  and  C_35 
REMARK   11  A    between atoms: CA_29  and  CB_30 
REMARK   12  A    between atoms: CB_30  and  CG_31 
REMARK   13  A    between atoms: CG_31  and  CD_32 
REMARK       I    between atoms: C_35  and  N_37 
REMARK   14  A    between atoms: N_37  and  CA_38 
REMARK   15  A    between atoms: CA_38  and  CB_39 
REMARK   16  A    between atoms: CA_38  and  C_47 
REMARK   17  A    between atoms: CB_39  and  CG_40 
REMARK       I    between atoms: C_47  and  N_49 
REMARK   18  A    between atoms: N_49  and  CA_50 
REMARK   19  A    between atoms: CA_50  and  CB_51 
REMARK   20  A    between atoms: CA_50  and  C_58 
REMARK   21  A    between atoms: CB_51  and  CG_52 
REMARK   22  A    between atoms: CG_52  and  CD_53 
REMARK   23  A    between atoms: CD_53  and  NE_54 
REMARK       I    between atoms: C_58  and  N_60 
REMARK   24  A    between atoms: N_60  and  CA_61 
REMARK   25  A    between atoms: CA_61  and  C_66 
REMARK   26  A    between atoms: CA_61  and  CB_62 
REMARK   27  A    between atoms: CB_62  and  CG_63 
REMARK       I    between atoms: C_66  and  N_68 
REMARK   28  A    between atoms: N_68  and  CA_69 
REMARK   29  A    between atoms: CA_69  and  CB_70 
REMARK   30  A    between atoms: CA_69  and  C_77 
REMARK   31  A    between atoms: CB_70  and  CG_71 
REMARK       I    between atoms: C_77  and  N_79 
REMARK   32  A    between atoms: N_79  and  CA_80 
REMARK   33  A    between atoms: CA_80  and  CB_81 
REMARK   34  A    between atoms: CA_80  and  C_91 
REMARK   35  A    between atoms: CB_81  and  CG_82 
REMARK       I    between atoms: C_91  and  N_93 
REMARK   36  A    between atoms: N_93  and  CA_94 
REMARK   37  A    between atoms: CA_94  and  C_95 
REMARK       I    between atoms: C_95  and  N_97 
REMARK   38  A    between atoms: N_97  and  CA_98 
REMARK   39  A    between atoms: CA_98  and  C_101 
REMARK   40  A    between atoms: CA_98  and  CB_99 
REMARK       I    between atoms: C_101  and  N_103 
REMARK   41  A    between atoms: N_103  and  CA_104 
REMARK   42  A    between atoms: CA_104  and  C_105 
ROOT
ATOM      1  CA  ARG     6      -2.647 -17.966   6.814  1.00  0.00     0.186 C 
ENDROOT
BRANCH   1   2
ATOM      2  N   ARG     6      -4.095 -18.022   6.505  1.00  0.00    -0.229 NA
ATOM      3  C   TYR     5      -4.916 -16.987   6.724  1.00  0.00     0.275 C 
ATOM      4  O   TYR     5      -4.516 -15.911   7.169  1.00  0.00    -0.268 OA
BRANCH   3   5
ATOM      5  CA  TYR     5      -6.382 -17.151   6.289  1.00  0.00     0.191 C 
BRANCH   5   6
ATOM      6  N   TYR     5      -7.030 -18.370   6.839  1.00  0.00    -0.228 NA
ATOM      7  C   GLU     4      -7.893 -19.122   6.137  1.00  0.00     0.274 C 
ATOM      8  O   GLU     4      -8.106 -18.944   4.944  1.00  0.00    -0.268 OA
BRANCH   7   9
ATOM      9  CA  GLU     4      -8.360 -20.427   6.814  1.00  0.00     0.187 C 
BRANCH   9  10
ATOM     10  CB  GLU     4      -7.764 -20.523   8.227  1.00  0.00     0.045 C 
BRANCH  10  11
ATOM     11  CG  GLU     4      -8.764 -20.415   9.400  1.00  0.00     0.100 C 
BRANCH  11  12
ATOM     12  CD  GLU     4      -9.236 -21.760   9.951  1.00  0.00     0.185 C 
ATOM     13  OE1 GLU     4      -8.492 -22.334  10.788  1.00  0.00    -0.647 OA
ATOM     14  OE2 GLU     4     -10.025 -22.412   9.238  1.00  0.00    -0.647 OA
ENDBRANCH  11  12
ENDBRANCH  10  11
ENDBRANCH   9  10
BRANCH   9  15
ATOM     15  N   GLU     4      -7.986 -21.640   6.061  1.00  0.00    -0.229 NA
ATOM     16  C   PRO     3      -6.779 -22.010   5.651  1.00  0.00     0.272 C 
ATOM     17  O   PRO     3      -5.735 -21.589   6.152  1.00  0.00    -0.269 OA
BRANCH  16  18
ATOM     18  CA  PRO     3      -6.727 -23.334   4.886  1.00  0.00     0.165 C 
ATOM     19  N   PRO     3      -7.524 -24.428   5.481  1.00  0.00    -0.312 N 
ATOM     20  CD  PRO     3      -8.203 -25.194   4.405  1.00  0.00     0.105 C 
ATOM     21  C   ASP     2      -7.495 -24.755   6.786  1.00  0.00     0.257 C 
ATOM     22  CG  PRO     3      -7.599 -24.639   3.106  1.00  0.00     0.027 C 
ATOM     23  CB  PRO     3      -7.245 -23.197   3.456  1.00  0.00     0.034 C 
ATOM     24  O   ASP     2      -6.622 -24.283   7.531  1.00  0.00    -0.270 OA
BRANCH  21  25
ATOM     25  CA  ASP     2      -8.305 -25.973   7.283  1.00  0.00     0.195 C 
BRANCH  25  26
ATOM     26  CB  ASP     2      -9.672 -25.666   7.949  1.00  0.00     0.132 C 
BRANCH  26  27
ATOM     27  CG  ASP     2     -10.768 -26.583   7.374  1.00  0.00     0.188 C 
ATOM     28  OD2 ASP     2     -10.786 -27.756   7.828  1.00  0.00    -0.647 OA
ATOM     29  OD1 ASP     2     -11.137 -26.351   6.196  1.00  0.00    -0.647 OA
ENDBRANCH  26  27
ENDBRANCH  25  26
BRANCH  25  30
ATOM     30  N   ASP     2      -7.597 -26.716   8.339  1.00  0.00    -0.228 NA
ATOM     31  C   TYR     1      -7.287 -27.992   8.328  1.00  0.00     0.289 C 
ATOM     32  O   TYR     1      -7.397 -28.793   7.394  1.00  0.00    -0.268 OA
BRANCH  31  33
ATOM     33  CA  TYR     1      -6.752 -28.461   9.677  1.00  0.00     0.385 C 
ATOM     34  N   TYR     1      -7.196 -29.851   9.879  1.00  0.00     0.626 N 
BRANCH  33  35
ATOM     35  CB  TYR     1      -5.231 -28.334   9.634  1.00  0.00     0.075 C 
BRANCH  35  36
ATOM     36  CG  TYR     1      -4.700 -27.173  10.489  1.00  0.00    -0.019 A 
ATOM     37  CD2 TYR     1      -5.549 -26.405  11.271  1.00  0.00    -0.002 A 
ATOM     38  CE2 TYR     1      -5.030 -25.453  12.135  1.00  0.00     0.027 A 
ATOM     39  CZ  TYR     1      -3.648 -25.276  12.201  1.00  0.00     0.131 A 
ATOM     40  CE1 TYR     1      -2.810 -26.017  11.387  1.00  0.00     0.027 A 
ATOM     41  OH  TYR     1      -3.109 -24.496  13.160  1.00  0.00    -0.190 OA
ATOM     42  CD1 TYR     1      -3.329 -26.969  10.523  1.00  0.00    -0.002 A 
ENDBRANCH  35  36
ENDBRANCH  33  35
ENDBRANCH  31  33
ENDBRANCH  25  30
ENDBRANCH  21  25
ENDBRANCH  16  18
ENDBRANCH   9  15
ENDBRANCH   7   9
ENDBRANCH   5   6
BRANCH   5  43
ATOM     43  CB  TYR     5      -7.206 -15.905   6.654  1.00  0.00     0.060 C 
BRANCH  43  44
ATOM     44  CG  TYR     5      -7.944 -15.317   5.440  1.00  0.00    -0.020 A 
ATOM     45  CD2 TYR     5      -7.333 -14.365   4.633  1.00  0.00    -0.002 A 
ATOM     46  CE2 TYR     5      -8.006 -13.845   3.532  1.00  0.00     0.027 A 
ATOM     47  CZ  TYR     5      -9.290 -14.276   3.237  1.00  0.00     0.131 A 
ATOM     48  CE1 TYR     5      -9.902 -15.242   4.029  1.00  0.00     0.027 A 
ATOM     49  OH  TYR     5     -10.001 -13.677   2.257  1.00  0.00    -0.190 OA
ATOM     50  CD1 TYR     5      -9.229 -15.755   5.137  1.00  0.00    -0.002 A 
ENDBRANCH  43  44
ENDBRANCH   5  43
ENDBRANCH   3   5
ENDBRANCH   1   2
BRANCH   1  51
ATOM     51  CB  ARG     6      -2.351 -18.127   8.302  1.00  0.00     0.036 C 
BRANCH  51  52
ATOM     52  CG  ARG     6      -1.262 -17.183   8.818  1.00  0.00     0.029 C 
BRANCH  52  53
ATOM     53  CD  ARG     6      -1.812 -15.767   8.964  1.00  0.00     0.145 C 
BRANCH  53  54
ATOM     54  NE  ARG     6      -1.058 -15.011   9.978  1.00  0.00    -0.083 NA
ATOM     55  CZ  ARG     6      -1.053 -13.671  10.109  1.00  0.00     0.782 C 
ATOM     56  NH2 ARG     6      -0.267 -13.081  11.012  1.00  0.00     0.063 N 
ATOM     57  NH1 ARG     6      -1.766 -12.913   9.282  1.00  0.00     0.063 N 
ENDBRANCH  53  54
ENDBRANCH  52  53
ENDBRANCH  51  52
ENDBRANCH   1  51
BRANCH   1  58
ATOM     58  C   ARG     6      -1.850 -19.057   6.088  1.00  0.00     0.274 C 
ATOM     59  N   ASN     7      -2.101 -20.306   6.470  1.00  0.00    -0.228 NA
ATOM     60  O   ARG     6      -1.040 -18.732   5.219  1.00  0.00    -0.268 OA
BRANCH  59  61
ATOM     61  CA  ASN     7      -1.505 -21.492   5.820  1.00  0.00     0.196 C 
BRANCH  61  62
ATOM     62  C   ASN     7      -2.584 -22.410   5.215  1.00  0.00     0.275 C 
ATOM     63  N   PHE     8      -2.509 -22.649   3.897  1.00  0.00    -0.228 NA
ATOM     64  O   ASN     7      -3.175 -23.149   5.978  1.00  0.00    -0.268 OA
BRANCH  63  65
ATOM     65  CA  PHE     8      -3.401 -23.569   3.149  1.00  0.00     0.191 C 
BRANCH  65  66
ATOM     66  CB  PHE     8      -3.169 -23.349   1.648  1.00  0.00     0.060 C 
BRANCH  66  67
ATOM     67  CG  PHE     8      -4.442 -23.447   0.787  1.00  0.00    -0.020 A 
ATOM     68  CD1 PHE     8      -5.169 -22.301   0.493  1.00  0.00    -0.004 A 
ATOM     69  CE1 PHE     8      -6.375 -22.403  -0.200  1.00  0.00    -0.000 A 
ATOM     70  CZ  PHE     8      -6.833 -23.647  -0.604  1.00  0.00    -0.000 A 
ATOM     71  CE2 PHE     8      -6.100 -24.795  -0.322  1.00  0.00    -0.000 A 
ATOM     72  CD2 PHE     8      -4.894 -24.693   0.370  1.00  0.00    -0.004 A 
ENDBRANCH  66  67
ENDBRANCH  65  66
BRANCH  65  73
ATOM     73  C   PHE     8      -3.270 -25.060   3.535  1.00  0.00     0.275 C 
ATOM     74  N   TRP     9      -4.379 -25.659   3.972  1.00  0.00    -0.228 NA
ATOM     75  O   PHE     8      -2.162 -25.585   3.671  1.00  0.00    -0.268 OA
BRANCH  74  76
ATOM     76  CA  TRP     9      -4.427 -27.114   4.259  1.00  0.00     0.191 C 
BRANCH  76  77
ATOM     77  CB  TRP     9      -4.549 -27.317   5.778  1.00  0.00     0.062 C 
BRANCH  77  78
ATOM     78  CG  TRP     9      -3.361 -28.064   6.383  1.00  0.00     0.001 A 
ATOM     79  CD1 TRP     9      -3.314 -29.364   6.657  1.00  0.00     0.095 A 
ATOM     80  NE1 TRP     9      -2.269 -29.621   7.434  1.00  0.00    -0.244 NA
ATOM     81  CE2 TRP     9      -1.603 -28.500   7.666  1.00  0.00     0.081 A 
ATOM     82  CD2 TRP     9      -2.276 -27.473   7.022  1.00  0.00     0.015 A 
ATOM     83  CZ2 TRP     9      -0.506 -28.200   8.473  1.00  0.00     0.019 A 
ATOM     84  CE3 TRP     9      -1.880 -26.153   7.184  1.00  0.00     0.001 A 
ATOM     85  CZ3 TRP     9      -0.794 -25.851   7.999  1.00  0.00     0.000 A 
ATOM     86  CH2 TRP     9      -0.099 -26.883   8.626  1.00  0.00     0.002 A 
ENDBRANCH  77  78
ENDBRANCH  76  77
BRANCH  76  87
ATOM     87  C   TRP     9      -5.526 -27.883   3.491  1.00  0.00     0.275 C 
ATOM     88  O   TRP     9      -5.729 -27.670   2.300  1.00  0.00    -0.268 OA
ATOM     89  N   GLY    10      -6.154 -28.843   4.168  1.00  0.00    -0.226 NA
BRANCH  89  90
ATOM     90  CA  GLY    10      -7.210 -29.721   3.593  1.00  0.00     0.218 C 
BRANCH  90  91
ATOM     91  C   GLY    10      -7.115 -31.217   3.936  1.00  0.00     0.277 C 
ATOM     92  N   CYS    11      -6.129 -31.542   4.771  1.00  0.00    -0.228 NA
ATOM     93  O   GLY    10      -7.795 -32.039   3.333  1.00  0.00    -0.268 OA
BRANCH  92  94
ATOM     94  CA  CYS    11      -5.819 -32.895   5.286  1.00  0.00     0.198 C 
BRANCH  94  95
ATOM     95  C   CYS    11      -6.804 -33.208   6.430  1.00  0.00     0.275 C 
ATOM     96  O   CYS    11      -6.574 -32.768   7.551  1.00  0.00    -0.268 OA
ATOM     97  N   GLY    12      -7.739 -34.107   6.163  1.00  0.00    -0.225 NA
BRANCH  97  98
ATOM     98  CA  GLY    12      -8.747 -34.532   7.147  1.00  0.00     0.226 C 
BRANCH  98  99
ATOM     99  C   GLY    12      -9.871 -35.276   6.389  1.00  0.00     0.211 C 
ATOM    100  O1  GLY    12     -11.051 -34.926   6.643  1.00  0.00    -0.646 OA
ATOM    101  O2  GLY    12      -9.536 -36.140   5.557  1.00  0.00    -0.646 OA
ENDBRANCH  98  99
ENDBRANCH  97  98
ENDBRANCH  94  95
BRANCH  94 102
ATOM    102  CB  CYS    11      -4.431 -32.910   5.921  1.00  0.00     0.103 C 
ATOM    103  SG  CYS    11      -3.550 -34.519   5.899  1.00  0.00    -0.080 SA
ENDBRANCH  94 102
ENDBRANCH  92  94
ENDBRANCH  90  91
ENDBRANCH  89  90
ENDBRANCH  76  87
ENDBRANCH  74  76
ENDBRANCH  65  73
ENDBRANCH  63  65
ENDBRANCH  61  62
BRANCH  61 104
ATOM    104  CB  ASN     7      -0.611 -22.270   6.794  1.00  0.00     0.126 C 
BRANCH 104 105
ATOM    105  CG  ASN     7      -0.847 -21.953   8.283  1.00  0.00     0.276 C 
ATOM    106  ND2 ASN     7       0.055 -21.194   8.861  1.00  0.00    -0.107 N 
ATOM    107  OD1 ASN     7      -1.706 -22.473   8.984  1.00  0.00    -0.269 OA
ENDBRANCH 104 105
ENDBRANCH  61 104
ENDBRANCH  59  61
ENDBRANCH   1  58
TORSDOF 42
ENDMDL
