MODEL 1
REMARK VINA RESULT:      -5.6      0.000      0.000
REMARK WARNING: 32 MAX_TORS EXCEEDED!!!
REMARK  33 active torsions:
REMARK  status: ('A' for Active; 'I' for Inactive)
REMARK    1  A    between atoms: CA_2  and  C_8 
REMARK    2  A    between atoms: CA_2  and  CB_3 
REMARK    3  A    between atoms: CB_3  and  CG_4 
REMARK    4  A    between atoms: CG_4  and  CD_5 
REMARK       I    between atoms: C_8  and  N_10 
REMARK    5  A    between atoms: N_10  and  CA_11 
REMARK    6  A    between atoms: CA_11  and  C_12 
REMARK       I    between atoms: C_12  and  N_14 
REMARK    7  A    between atoms: N_14  and  CA_15 
REMARK    8  A    between atoms: CA_15  and  C_20 
REMARK    9  A    between atoms: CA_15  and  CB_16 
REMARK   10  A    between atoms: CB_16  and  CG_17 
REMARK       I    between atoms: C_20  and  N_22 
REMARK   11  A    between atoms: N_22  and  CA_23 
REMARK   12  A    between atoms: CA_23  and  CB_24 
REMARK   13  A    between atoms: CA_23  and  C_28 
REMARK   14  A    between atoms: CB_24  and  CG_25 
REMARK       I    between atoms: C_28  and  N_30 
REMARK   15  A    between atoms: N_30  and  CA_31 
REMARK   16  A    between atoms: CA_31  and  CB_32 
REMARK   17  A    between atoms: CA_31  and  C_39 
REMARK   18  A    between atoms: CB_32  and  CG_33 
REMARK   19  A    between atoms: CG_33  and  CD_34 
REMARK   20  A    between atoms: CD_34  and  NE_35 
REMARK       I    between atoms: C_39  and  N_41 
REMARK   21  A    between atoms: CA_42  and  C_46 
REMARK       I    between atoms: C_46  and  N_48 
REMARK   22  A    between atoms: N_48  and  CA_49 
REMARK   23  A    between atoms: CA_49  and  C_52 
REMARK   24  A    between atoms: CA_49  and  CB_50 
REMARK       I    between atoms: C_52  and  N_54 
REMARK   25  A    between atoms: N_54  and  CA_55 
REMARK   26  A    between atoms: CA_55  and  C_56 
REMARK       I    between atoms: C_56  and  N_58 
REMARK   27  A    between atoms: N_58  and  CA_59 
REMARK   28  A    between atoms: CA_59  and  C_60 
REMARK       I    between atoms: C_60  and  N_62 
REMARK   29  A    between atoms: N_62  and  CA_63 
REMARK   30  A    between atoms: CA_63  and  CB_64 
REMARK   31  A    between atoms: CA_63  and  C_66 
REMARK       I    between atoms: C_66  and  N_68 
REMARK   32  A    between atoms: N_68  and  CA_69 
REMARK   33  A    between atoms: CA_69  and  C_70 
ROOT
ATOM      1  CA  ARG     5      -7.568 -19.000   6.651  1.00  0.00     0.185 C 
ENDROOT
BRANCH   1   2
ATOM      2  N   ARG     5      -6.925 -19.594   5.464  1.00  0.00    -0.229 NA
ATOM      3  C   ASN     4      -7.094 -20.835   5.034  1.00  0.00     0.275 C 
ATOM      4  O   ASN     4      -7.605 -21.731   5.699  1.00  0.00    -0.268 OA
BRANCH   3   5
ATOM      5  CA  ASN     4      -6.288 -21.137   3.754  1.00  0.00     0.196 C 
BRANCH   5   6
ATOM      6  N   ASN     4      -4.964 -21.701   4.092  1.00  0.00    -0.228 NA
ATOM      7  C   LEU     3      -3.852 -20.971   4.145  1.00  0.00     0.274 C 
ATOM      8  O   LEU     3      -3.793 -19.757   3.931  1.00  0.00    -0.268 OA
BRANCH   7   9
ATOM      9  CA  LEU     3      -2.599 -21.737   4.566  1.00  0.00     0.186 C 
BRANCH   9  10
ATOM     10  N   LEU     3      -2.352 -21.527   6.010  1.00  0.00    -0.229 NA
ATOM     11  C   GLY     2      -1.553 -20.563   6.477  1.00  0.00     0.277 C 
ATOM     12  O   GLY     2      -1.085 -19.682   5.772  1.00  0.00    -0.268 OA
BRANCH  11  13
ATOM     13  CA  GLY     2      -1.379 -20.512   8.010  1.00  0.00     0.218 C 
BRANCH  13  14
ATOM     14  N   GLY     2      -0.108 -19.972   8.551  1.00  0.00    -0.226 NA
ATOM     15  C   GLU     1       1.002 -20.715   8.628  1.00  0.00     0.289 C 
ATOM     16  O   GLU     1       1.062 -21.815   8.105  1.00  0.00    -0.268 OA
BRANCH  15  17
ATOM     17  CA  GLU     1       2.253 -20.116   9.325  1.00  0.00     0.381 C 
ATOM     18  N   GLU     1       3.505 -20.825   9.004  1.00  0.00     0.626 N 
BRANCH  17  19
ATOM     19  CB  GLU     1       2.347 -18.620   8.963  1.00  0.00     0.060 C 
BRANCH  19  20
ATOM     20  CG  GLU     1       2.313 -18.198   7.486  1.00  0.00     0.100 C 
BRANCH  20  21
ATOM     21  CD  GLU     1       3.646 -17.604   7.006  1.00  0.00     0.185 C 
ATOM     22  OE1 GLU     1       4.703 -18.118   7.414  1.00  0.00    -0.647 OA
ATOM     23  OE2 GLU     1       3.616 -16.614   6.254  1.00  0.00    -0.647 OA
ENDBRANCH  20  21
ENDBRANCH  19  20
ENDBRANCH  17  19
ENDBRANCH  15  17
ENDBRANCH  13  14
ENDBRANCH  11  13
ENDBRANCH   9  10
BRANCH   9  24
ATOM     24  CB  LEU     3      -2.807 -23.227   4.267  1.00  0.00     0.034 C 
BRANCH  24  25
ATOM     25  CG  LEU     3      -1.739 -24.142   4.894  1.00  0.00     0.002 C 
ATOM     26  CD1 LEU     3      -2.234 -25.587   4.877  1.00  0.00     0.000 C 
ATOM     27  CD2 LEU     3      -0.407 -24.034   4.144  1.00  0.00     0.000 C 
ENDBRANCH  24  25
ENDBRANCH   9  24
ENDBRANCH   7   9
ENDBRANCH   5   6
BRANCH   5  28
ATOM     28  CB  ASN     4      -7.050 -22.092   2.820  1.00  0.00     0.126 C 
BRANCH  28  29
ATOM     29  CG  ASN     4      -6.562 -22.049   1.359  1.00  0.00     0.276 C 
ATOM     30  ND2 ASN     4      -7.477 -22.196   0.438  1.00  0.00    -0.107 N 
ATOM     31  OD1 ASN     4      -5.412 -21.828   1.034  1.00  0.00    -0.269 OA
ENDBRANCH  28  29
ENDBRANCH   5  28
ENDBRANCH   3   5
ENDBRANCH   1   2
BRANCH   1  32
ATOM     32  CB  ARG     5      -6.630 -19.069   7.861  1.00  0.00     0.036 C 
BRANCH  32  33
ATOM     33  CG  ARG     5      -5.145 -19.020   7.496  1.00  0.00     0.029 C 
BRANCH  33  34
ATOM     34  CD  ARG     5      -4.366 -18.362   8.631  1.00  0.00     0.145 C 
BRANCH  34  35
ATOM     35  NE  ARG     5      -3.426 -17.329   8.131  1.00  0.00    -0.083 NA
ATOM     36  CZ  ARG     5      -3.318 -16.089   8.629  1.00  0.00     0.782 C 
ATOM     37  NH2 ARG     5      -2.287 -15.295   8.296  1.00  0.00     0.063 N 
ATOM     38  NH1 ARG     5      -4.150 -15.644   9.560  1.00  0.00     0.063 N 
ENDBRANCH  34  35
ENDBRANCH  33  34
ENDBRANCH  32  33
ENDBRANCH   1  32
BRANCH   1  39
ATOM     39  C   ARG     5      -7.928 -17.531   6.361  1.00  0.00     0.256 C 
ATOM     40  O   ARG     5      -7.045 -16.667   6.384  1.00  0.00    -0.270 OA
ATOM     41  N   PRO     6      -9.186 -17.272   5.992  1.00  0.00    -0.312 N 
ATOM     42  CA  PRO     6      -9.707 -15.915   5.710  1.00  0.00     0.165 C 
ATOM     43  CD  PRO     6     -10.206 -18.287   5.651  1.00  0.00     0.105 C 
ATOM     44  CB  PRO     6     -11.198 -16.118   5.433  1.00  0.00     0.034 C 
ATOM     45  CG  PRO     6     -11.246 -17.517   4.836  1.00  0.00     0.027 C 
BRANCH  42  46
ATOM     46  C   PRO     6      -9.494 -14.973   6.907  1.00  0.00     0.272 C 
ATOM     47  N   SER     7      -8.730 -13.899   6.762  1.00  0.00    -0.226 NA
ATOM     48  O   PRO     6      -9.944 -15.272   8.017  1.00  0.00    -0.269 OA
BRANCH  47  49
ATOM     49  CA  SER     7      -8.013 -13.479   5.533  1.00  0.00     0.219 C 
BRANCH  49  50
ATOM     50  C   SER     7      -6.675 -12.790   5.855  1.00  0.00     0.277 C 
ATOM     51  O   SER     7      -5.928 -12.471   4.936  1.00  0.00    -0.268 OA
ATOM     52  N   GLY     8      -6.526 -12.374   7.105  1.00  0.00    -0.226 NA
BRANCH  52  53
ATOM     53  CA  GLY     8      -5.220 -11.884   7.621  1.00  0.00     0.218 C 
BRANCH  53  54
ATOM     54  C   GLY     8      -5.019 -10.365   7.762  1.00  0.00     0.277 C 
ATOM     55  N   GLY     9      -5.407  -9.597   6.733  1.00  0.00    -0.226 NA
ATOM     56  O   GLY     8      -4.563  -9.900   8.794  1.00  0.00    -0.268 OA
BRANCH  55  57
ATOM     57  CA  GLY     9      -5.239  -8.130   6.713  1.00  0.00     0.218 C 
BRANCH  57  58
ATOM     58  C   GLY     9      -6.567  -7.403   7.031  1.00  0.00     0.277 C 
ATOM     59  O   GLY     9      -6.947  -7.328   8.193  1.00  0.00    -0.268 OA
ATOM     60  N   CYS    10      -7.393  -7.005   6.073  1.00  0.00    -0.228 NA
BRANCH  60  61
ATOM     61  CA  CYS    10      -7.248  -7.193   4.609  1.00  0.00     0.198 C 
BRANCH  61  62
ATOM     62  CB  CYS    10      -8.570  -7.582   3.937  1.00  0.00     0.103 C 
ATOM     63  SG  CYS    10     -10.071  -7.648   4.974  1.00  0.00    -0.080 SA
ENDBRANCH  61  62
BRANCH  61  64
ATOM     64  C   CYS    10      -6.795  -5.938   3.860  1.00  0.00     0.275 C 
ATOM     65  O   CYS    10      -5.710  -5.942   3.282  1.00  0.00    -0.268 OA
ATOM     66  N   GLY    11      -7.765  -5.064   3.644  1.00  0.00    -0.225 NA
BRANCH  66  67
ATOM     67  CA  GLY    11      -7.506  -3.618   3.621  1.00  0.00     0.226 C 
BRANCH  67  68
ATOM     68  C   GLY    11      -8.776  -3.001   3.013  1.00  0.00     0.211 C 
ATOM     69  O2  GLY    11      -8.891  -3.118   1.774  1.00  0.00    -0.646 OA
ATOM     70  O1  GLY    11      -9.721  -2.787   3.806  1.00  0.00    -0.646 OA
ENDBRANCH  67  68
ENDBRANCH  66  67
ENDBRANCH  61  64
ENDBRANCH  60  61
ENDBRANCH  57  58
ENDBRANCH  55  57
ENDBRANCH  53  54
ENDBRANCH  52  53
ENDBRANCH  49  50
BRANCH  49  71
ATOM     71  CB  SER     7      -8.842 -12.498   4.702  1.00  0.00     0.216 C 
ATOM     72  OG  SER     7      -9.146 -11.338   5.477  1.00  0.00    -0.218 OA
ENDBRANCH  49  71
ENDBRANCH  47  49
ENDBRANCH  42  46
ENDBRANCH   1  39
TORSDOF 33
ENDMDL
MODEL 2
REMARK VINA RESULT:      -5.6      1.820      2.246
REMARK WARNING: 32 MAX_TORS EXCEEDED!!!
REMARK  33 active torsions:
REMARK  status: ('A' for Active; 'I' for Inactive)
REMARK    1  A    between atoms: CA_2  and  C_8 
REMARK    2  A    between atoms: CA_2  and  CB_3 
REMARK    3  A    between atoms: CB_3  and  CG_4 
REMARK    4  A    between atoms: CG_4  and  CD_5 
REMARK       I    between atoms: C_8  and  N_10 
REMARK    5  A    between atoms: N_10  and  CA_11 
REMARK    6  A    between atoms: CA_11  and  C_12 
REMARK       I    between atoms: C_12  and  N_14 
REMARK    7  A    between atoms: N_14  and  CA_15 
REMARK    8  A    between atoms: CA_15  and  C_20 
REMARK    9  A    between atoms: CA_15  and  CB_16 
REMARK   10  A    between atoms: CB_16  and  CG_17 
REMARK       I    between atoms: C_20  and  N_22 
REMARK   11  A    between atoms: N_22  and  CA_23 
REMARK   12  A    between atoms: CA_23  and  CB_24 
REMARK   13  A    between atoms: CA_23  and  C_28 
REMARK   14  A    between atoms: CB_24  and  CG_25 
REMARK       I    between atoms: C_28  and  N_30 
REMARK   15  A    between atoms: N_30  and  CA_31 
REMARK   16  A    between atoms: CA_31  and  CB_32 
REMARK   17  A    between atoms: CA_31  and  C_39 
REMARK   18  A    between atoms: CB_32  and  CG_33 
REMARK   19  A    between atoms: CG_33  and  CD_34 
REMARK   20  A    between atoms: CD_34  and  NE_35 
REMARK       I    between atoms: C_39  and  N_41 
REMARK   21  A    between atoms: CA_42  and  C_46 
REMARK       I    between atoms: C_46  and  N_48 
REMARK   22  A    between atoms: N_48  and  CA_49 
REMARK   23  A    between atoms: CA_49  and  C_52 
REMARK   24  A    between atoms: CA_49  and  CB_50 
REMARK       I    between atoms: C_52  and  N_54 
REMARK   25  A    between atoms: N_54  and  CA_55 
REMARK   26  A    between atoms: CA_55  and  C_56 
REMARK       I    between atoms: C_56  and  N_58 
REMARK   27  A    between atoms: N_58  and  CA_59 
REMARK   28  A    between atoms: CA_59  and  C_60 
REMARK       I    between atoms: C_60  and  N_62 
REMARK   29  A    between atoms: N_62  and  CA_63 
REMARK   30  A    between atoms: CA_63  and  CB_64 
REMARK   31  A    between atoms: CA_63  and  C_66 
REMARK       I    between atoms: C_66  and  N_68 
REMARK   32  A    between atoms: N_68  and  CA_69 
REMARK   33  A    between atoms: CA_69  and  C_70 
ROOT
ATOM      1  CA  ARG     5      -7.200 -20.124   6.227  1.00  0.00     0.185 C 
ENDROOT
BRANCH   1   2
ATOM      2  N   ARG     5      -6.347 -20.488   5.080  1.00  0.00    -0.229 NA
ATOM      3  C   ASN     4      -6.625 -21.412   4.174  1.00  0.00     0.275 C 
ATOM      4  O   ASN     4      -7.500 -22.262   4.302  1.00  0.00    -0.268 OA
BRANCH   3   5
ATOM      5  CA  ASN     4      -5.529 -21.537   3.095  1.00  0.00     0.196 C 
BRANCH   5   6
ATOM      6  N   ASN     4      -4.468 -22.469   3.534  1.00  0.00    -0.228 NA
ATOM      7  C   LEU     3      -3.323 -22.066   4.078  1.00  0.00     0.274 C 
ATOM      8  O   LEU     3      -3.014 -20.888   4.286  1.00  0.00    -0.268 OA
BRANCH   7   9
ATOM      9  CA  LEU     3      -2.384 -23.191   4.512  1.00  0.00     0.186 C 
BRANCH   9  10
ATOM     10  N   LEU     3      -1.099 -22.616   4.967  1.00  0.00    -0.229 NA
ATOM     11  C   GLY     2       0.087 -23.132   4.629  1.00  0.00     0.277 C 
ATOM     12  O   GLY     2       0.219 -24.018   3.798  1.00  0.00    -0.268 OA
BRANCH  11  13
ATOM     13  CA  GLY     2       1.325 -22.429   5.223  1.00  0.00     0.218 C 
BRANCH  13  14
ATOM     14  N   GLY     2       1.109 -21.397   6.266  1.00  0.00    -0.226 NA
ATOM     15  C   GLU     1       2.033 -21.122   7.194  1.00  0.00     0.289 C 
ATOM     16  O   GLU     1       3.157 -21.590   7.122  1.00  0.00    -0.268 OA
BRANCH  15  17
ATOM     17  CA  GLU     1       1.678 -20.121   8.326  1.00  0.00     0.381 C 
ATOM     18  N   GLU     1       1.720 -20.713   9.674  1.00  0.00     0.626 N 
BRANCH  17  19
ATOM     19  CB  GLU     1       2.622 -18.905   8.219  1.00  0.00     0.060 C 
BRANCH  19  20
ATOM     20  CG  GLU     1       2.088 -17.585   7.642  1.00  0.00     0.100 C 
BRANCH  20  21
ATOM     21  CD  GLU     1       0.776 -17.134   8.302  1.00  0.00     0.185 C 
ATOM     22  OE1 GLU     1      -0.128 -16.686   7.575  1.00  0.00    -0.647 OA
ATOM     23  OE2 GLU     1       0.681 -17.207   9.540  1.00  0.00    -0.647 OA
ENDBRANCH  20  21
ENDBRANCH  19  20
ENDBRANCH  17  19
ENDBRANCH  15  17
ENDBRANCH  13  14
ENDBRANCH  11  13
ENDBRANCH   9  10
BRANCH   9  24
ATOM     24  CB  LEU     3      -3.051 -23.980   5.645  1.00  0.00     0.034 C 
BRANCH  24  25
ATOM     25  CG  LEU     3      -2.908 -25.507   5.508  1.00  0.00     0.002 C 
ATOM     26  CD1 LEU     3      -2.821 -25.878   4.029  1.00  0.00     0.000 C 
ATOM     27  CD2 LEU     3      -1.669 -26.017   6.251  1.00  0.00     0.000 C 
ENDBRANCH  24  25
ENDBRANCH   9  24
ENDBRANCH   7   9
ENDBRANCH   5   6
BRANCH   5  28
ATOM     28  CB  ASN     4      -6.113 -21.994   1.748  1.00  0.00     0.126 C 
BRANCH  28  29
ATOM     29  CG  ASN     4      -5.055 -22.527   0.763  1.00  0.00     0.276 C 
ATOM     30  ND2 ASN     4      -5.185 -23.772   0.390  1.00  0.00    -0.107 N 
ATOM     31  OD1 ASN     4      -4.171 -21.843   0.281  1.00  0.00    -0.269 OA
ENDBRANCH  28  29
ENDBRANCH   5  28
ENDBRANCH   3   5
ENDBRANCH   1   2
BRANCH   1  32
ATOM     32  CB  ARG     5      -6.343 -19.837   7.464  1.00  0.00     0.036 C 
BRANCH  32  33
ATOM     33  CG  ARG     5      -4.849 -19.705   7.166  1.00  0.00     0.029 C 
BRANCH  33  34
ATOM     34  CD  ARG     5      -4.165 -18.970   8.314  1.00  0.00     0.145 C 
BRANCH  34  35
ATOM     35  NE  ARG     5      -4.122 -17.505   8.087  1.00  0.00    -0.083 NA
ATOM     36  CZ  ARG     5      -3.399 -16.640   8.813  1.00  0.00     0.782 C 
ATOM     37  NH2 ARG     5      -3.215 -15.374   8.403  1.00  0.00     0.063 N 
ATOM     38  NH1 ARG     5      -2.737 -17.029   9.893  1.00  0.00     0.063 N 
ENDBRANCH  34  35
ENDBRANCH  33  34
ENDBRANCH  32  33
ENDBRANCH   1  32
BRANCH   1  39
ATOM     39  C   ARG     5      -8.032 -18.877   5.874  1.00  0.00     0.256 C 
ATOM     40  O   ARG     5      -7.462 -17.826   5.570  1.00  0.00    -0.270 OA
ATOM     41  N   PRO     6      -9.359 -19.025   5.817  1.00  0.00    -0.312 N 
ATOM     42  CA  PRO     6     -10.306 -17.925   5.527  1.00  0.00     0.165 C 
ATOM     43  CD  PRO     6     -10.082 -20.314   5.869  1.00  0.00     0.105 C 
ATOM     44  CB  PRO     6     -11.693 -18.554   5.670  1.00  0.00     0.034 C 
ATOM     45  CG  PRO     6     -11.454 -20.002   5.269  1.00  0.00     0.027 C 
BRANCH  42  46
ATOM     46  C   PRO     6     -10.129 -16.757   6.512  1.00  0.00     0.272 C 
ATOM     47  N   SER     7      -9.830 -15.552   6.046  1.00  0.00    -0.226 NA
ATOM     48  O   PRO     6     -10.159 -16.966   7.728  1.00  0.00    -0.269 OA
BRANCH  47  49
ATOM     49  CA  SER     7      -9.627 -15.174   4.627  1.00  0.00     0.219 C 
BRANCH  49  50
ATOM     50  C   SER     7      -8.213 -14.622   4.375  1.00  0.00     0.277 C 
ATOM     51  O   SER     7      -7.533 -15.101   3.474  1.00  0.00    -0.268 OA
ATOM     52  N   GLY     8      -7.914 -13.493   5.004  1.00  0.00    -0.226 NA
BRANCH  52  53
ATOM     53  CA  GLY     8      -6.530 -12.950   5.031  1.00  0.00     0.218 C 
BRANCH  53  54
ATOM     54  C   GLY     8      -6.158 -11.967   6.155  1.00  0.00     0.277 C 
ATOM     55  N   GLY     9      -6.892 -10.850   6.259  1.00  0.00    -0.226 NA
ATOM     56  O   GLY     8      -5.256 -12.237   6.931  1.00  0.00    -0.268 OA
BRANCH  55  57
ATOM     57  CA  GLY     9      -6.624  -9.800   7.264  1.00  0.00     0.218 C 
BRANCH  57  58
ATOM     58  C   GLY     9      -5.565  -8.792   6.760  1.00  0.00     0.277 C 
ATOM     59  O   GLY     9      -4.412  -8.881   7.163  1.00  0.00    -0.268 OA
ATOM     60  N   CYS    10      -5.897  -7.732   6.036  1.00  0.00    -0.228 NA
BRANCH  60  61
ATOM     61  CA  CYS    10      -7.254  -7.300   5.622  1.00  0.00     0.198 C 
BRANCH  61  62
ATOM     62  CB  CYS    10      -7.900  -6.349   6.636  1.00  0.00     0.103 C 
ATOM     63  SG  CYS    10      -9.340  -6.955   7.581  1.00  0.00    -0.080 SA
ENDBRANCH  61  62
BRANCH  61  64
ATOM     64  C   CYS    10      -7.288  -6.529   4.301  1.00  0.00     0.275 C 
ATOM     65  O   CYS    10      -6.971  -7.103   3.261  1.00  0.00    -0.268 OA
ATOM     66  N   GLY    11      -7.962  -5.392   4.363  1.00  0.00    -0.225 NA
BRANCH  66  67
ATOM     67  CA  GLY    11      -7.575  -4.224   3.559  1.00  0.00     0.226 C 
BRANCH  67  68
ATOM     68  C   GLY    11      -8.843  -3.849   2.775  1.00  0.00     0.211 C 
ATOM     69  O2  GLY    11      -8.706  -2.933   1.936  1.00  0.00    -0.646 OA
ATOM     70  O1  GLY    11      -9.760  -4.702   2.766  1.00  0.00    -0.646 OA
ENDBRANCH  67  68
ENDBRANCH  66  67
ENDBRANCH  61  64
ENDBRANCH  60  61
ENDBRANCH  57  58
ENDBRANCH  55  57
ENDBRANCH  53  54
ENDBRANCH  52  53
ENDBRANCH  49  50
BRANCH  49  71
ATOM     71  CB  SER     7     -10.623 -14.102   4.179  1.00  0.00     0.216 C 
ATOM     72  OG  SER     7     -11.593 -13.881   5.203  1.00  0.00    -0.218 OA
ENDBRANCH  49  71
ENDBRANCH  47  49
ENDBRANCH  42  46
ENDBRANCH   1  39
TORSDOF 33
ENDMDL
MODEL 3
REMARK VINA RESULT:      -5.4      6.668     12.239
REMARK WARNING: 32 MAX_TORS EXCEEDED!!!
REMARK  33 active torsions:
REMARK  status: ('A' for Active; 'I' for Inactive)
REMARK    1  A    between atoms: CA_2  and  C_8 
REMARK    2  A    between atoms: CA_2  and  CB_3 
REMARK    3  A    between atoms: CB_3  and  CG_4 
REMARK    4  A    between atoms: CG_4  and  CD_5 
REMARK       I    between atoms: C_8  and  N_10 
REMARK    5  A    between atoms: N_10  and  CA_11 
REMARK    6  A    between atoms: CA_11  and  C_12 
REMARK       I    between atoms: C_12  and  N_14 
REMARK    7  A    between atoms: N_14  and  CA_15 
REMARK    8  A    between atoms: CA_15  and  C_20 
REMARK    9  A    between atoms: CA_15  and  CB_16 
REMARK   10  A    between atoms: CB_16  and  CG_17 
REMARK       I    between atoms: C_20  and  N_22 
REMARK   11  A    between atoms: N_22  and  CA_23 
REMARK   12  A    between atoms: CA_23  and  CB_24 
REMARK   13  A    between atoms: CA_23  and  C_28 
REMARK   14  A    between atoms: CB_24  and  CG_25 
REMARK       I    between atoms: C_28  and  N_30 
REMARK   15  A    between atoms: N_30  and  CA_31 
REMARK   16  A    between atoms: CA_31  and  CB_32 
REMARK   17  A    between atoms: CA_31  and  C_39 
REMARK   18  A    between atoms: CB_32  and  CG_33 
REMARK   19  A    between atoms: CG_33  and  CD_34 
REMARK   20  A    between atoms: CD_34  and  NE_35 
REMARK       I    between atoms: C_39  and  N_41 
REMARK   21  A    between atoms: CA_42  and  C_46 
REMARK       I    between atoms: C_46  and  N_48 
REMARK   22  A    between atoms: N_48  and  CA_49 
REMARK   23  A    between atoms: CA_49  and  C_52 
REMARK   24  A    between atoms: CA_49  and  CB_50 
REMARK       I    between atoms: C_52  and  N_54 
REMARK   25  A    between atoms: N_54  and  CA_55 
REMARK   26  A    between atoms: CA_55  and  C_56 
REMARK       I    between atoms: C_56  and  N_58 
REMARK   27  A    between atoms: N_58  and  CA_59 
REMARK   28  A    between atoms: CA_59  and  C_60 
REMARK       I    between atoms: C_60  and  N_62 
REMARK   29  A    between atoms: N_62  and  CA_63 
REMARK   30  A    between atoms: CA_63  and  CB_64 
REMARK   31  A    between atoms: CA_63  and  C_66 
REMARK       I    between atoms: C_66  and  N_68 
REMARK   32  A    between atoms: N_68  and  CA_69 
REMARK   33  A    between atoms: CA_69  and  C_70 
ROOT
ATOM      1  CA  ARG     5      -9.178  -7.883   7.387  1.00  0.00     0.185 C 
ENDROOT
BRANCH   1   2
ATOM      2  N   ARG     5      -7.831  -8.362   7.747  1.00  0.00    -0.229 NA
ATOM      3  C   ASN     4      -6.873  -7.630   8.297  1.00  0.00     0.275 C 
ATOM      4  O   ASN     4      -6.886  -6.405   8.349  1.00  0.00    -0.268 OA
BRANCH   3   5
ATOM      5  CA  ASN     4      -5.586  -8.438   8.561  1.00  0.00     0.196 C 
BRANCH   5   6
ATOM      6  N   ASN     4      -5.660  -9.766   7.917  1.00  0.00    -0.228 NA
ATOM      7  C   LEU     3      -5.689 -10.907   8.600  1.00  0.00     0.274 C 
ATOM      8  O   LEU     3      -5.667 -10.995   9.831  1.00  0.00    -0.268 OA
BRANCH   7   9
ATOM      9  CA  LEU     3      -5.822 -12.167   7.745  1.00  0.00     0.186 C 
BRANCH   9  10
ATOM     10  N   LEU     3      -6.703 -11.891   6.588  1.00  0.00    -0.229 NA
ATOM     11  C   GLY     2      -7.370 -12.849   5.939  1.00  0.00     0.277 C 
ATOM     12  O   GLY     2      -7.435 -14.004   6.334  1.00  0.00    -0.268 OA
BRANCH  11  13
ATOM     13  CA  GLY     2      -8.214 -12.388   4.732  1.00  0.00     0.218 C 
BRANCH  13  14
ATOM     14  N   GLY     2      -9.432 -13.163   4.394  1.00  0.00    -0.226 NA
ATOM     15  C   GLU     1      -9.397 -14.214   3.566  1.00  0.00     0.289 C 
ATOM     16  O   GLU     1      -8.337 -14.681   3.185  1.00  0.00    -0.268 OA
BRANCH  15  17
ATOM     17  CA  GLU     1     -10.735 -14.890   3.164  1.00  0.00     0.381 C 
ATOM     18  N   GLU     1     -11.909 -14.011   3.304  1.00  0.00     0.626 N 
BRANCH  17  19
ATOM     19  CB  GLU     1     -10.601 -15.421   1.721  1.00  0.00     0.060 C 
BRANCH  19  20
ATOM     20  CG  GLU     1     -11.197 -16.791   1.364  1.00  0.00     0.100 C 
BRANCH  20  21
ATOM     21  CD  GLU     1     -12.608 -16.689   0.766  1.00  0.00     0.185 C 
ATOM     22  OE1 GLU     1     -13.290 -17.727   0.679  1.00  0.00    -0.647 OA
ATOM     23  OE2 GLU     1     -13.001 -15.581   0.362  1.00  0.00    -0.647 OA
ENDBRANCH  20  21
ENDBRANCH  19  20
ENDBRANCH  17  19
ENDBRANCH  15  17
ENDBRANCH  13  14
ENDBRANCH  11  13
ENDBRANCH   9  10
BRANCH   9  24
ATOM     24  CB  LEU     3      -4.426 -12.588   7.268  1.00  0.00     0.034 C 
BRANCH  24  25
ATOM     25  CG  LEU     3      -3.838 -13.781   8.044  1.00  0.00     0.002 C 
ATOM     26  CD1 LEU     3      -2.779 -13.279   9.022  1.00  0.00     0.000 C 
ATOM     27  CD2 LEU     3      -4.931 -14.544   8.800  1.00  0.00     0.000 C 
ENDBRANCH  24  25
ENDBRANCH   9  24
ENDBRANCH   7   9
ENDBRANCH   5   6
BRANCH   5  28
ATOM     28  CB  ASN     4      -4.337  -7.681   8.077  1.00  0.00     0.126 C 
BRANCH  28  29
ATOM     29  CG  ASN     4      -3.152  -7.750   9.060  1.00  0.00     0.276 C 
ATOM     30  ND2 ASN     4      -3.235  -8.645  10.008  1.00  0.00    -0.107 N 
ATOM     31  OD1 ASN     4      -2.146  -7.073   8.958  1.00  0.00    -0.269 OA
ENDBRANCH  28  29
ENDBRANCH   5  28
ENDBRANCH   3   5
ENDBRANCH   1   2
BRANCH   1  32
ATOM     32  CB  ARG     5      -9.931  -7.406   8.634  1.00  0.00     0.036 C 
BRANCH  32  33
ATOM     33  CG  ARG     5     -11.293  -8.073   8.827  1.00  0.00     0.029 C 
BRANCH  33  34
ATOM     34  CD  ARG     5     -11.105  -9.421   9.516  1.00  0.00     0.145 C 
BRANCH  34  35
ATOM     35  NE  ARG     5     -11.342 -10.555   8.590  1.00  0.00    -0.083 NA
ATOM     36  CZ  ARG     5     -10.479 -11.558   8.373  1.00  0.00     0.782 C 
ATOM     37  NH2 ARG     5     -10.856 -12.668   7.717  1.00  0.00     0.063 N 
ATOM     38  NH1 ARG     5      -9.264 -11.550   8.902  1.00  0.00     0.063 N 
ENDBRANCH  34  35
ENDBRANCH  33  34
ENDBRANCH  32  33
ENDBRANCH   1  32
BRANCH   1  39
ATOM     39  C   ARG     5      -9.060  -6.723   6.380  1.00  0.00     0.256 C 
ATOM     40  O   ARG     5      -9.347  -5.574   6.733  1.00  0.00    -0.270 OA
ATOM     41  N   PRO     6      -8.546  -7.005   5.180  1.00  0.00    -0.312 N 
ATOM     42  CA  PRO     6      -8.395  -6.018   4.087  1.00  0.00     0.165 C 
ATOM     43  CD  PRO     6      -7.905  -8.283   4.800  1.00  0.00     0.105 C 
ATOM     44  CB  PRO     6      -7.866  -6.826   2.900  1.00  0.00     0.034 C 
ATOM     45  CG  PRO     6      -7.065  -7.933   3.571  1.00  0.00     0.027 C 
BRANCH  42  46
ATOM     46  C   PRO     6      -9.737  -5.352   3.742  1.00  0.00     0.272 C 
ATOM     47  N   SER     7      -9.817  -4.029   3.704  1.00  0.00    -0.226 NA
ATOM     48  O   PRO     6     -10.753  -6.042   3.610  1.00  0.00    -0.269 OA
BRANCH  47  49
ATOM     49  CA  SER     7      -8.722  -3.066   3.972  1.00  0.00     0.219 C 
BRANCH  49  50
ATOM     50  C   SER     7      -9.159  -1.953   4.941  1.00  0.00     0.277 C 
ATOM     51  O   SER     7      -9.602  -2.256   6.043  1.00  0.00    -0.268 OA
ATOM     52  N   GLY     8      -8.803  -0.721   4.602  1.00  0.00    -0.226 NA
BRANCH  52  53
ATOM     53  CA  GLY     8      -9.326   0.473   5.316  1.00  0.00     0.218 C 
BRANCH  53  54
ATOM     54  C   GLY     8      -8.771   1.854   4.925  1.00  0.00     0.277 C 
ATOM     55  N   GLY     9      -9.143   2.900   5.679  1.00  0.00    -0.226 NA
ATOM     56  O   GLY     8      -7.992   1.960   3.992  1.00  0.00    -0.268 OA
BRANCH  55  57
ATOM     57  CA  GLY     9      -8.720   4.287   5.398  1.00  0.00     0.218 C 
BRANCH  57  58
ATOM     58  C   GLY     9      -7.724   4.801   6.465  1.00  0.00     0.277 C 
ATOM     59  O   GLY     9      -8.155   5.298   7.497  1.00  0.00    -0.268 OA
ATOM     60  N   CYS    10      -6.422   4.875   6.227  1.00  0.00    -0.228 NA
BRANCH  60  61
ATOM     61  CA  CYS    10      -5.703   4.543   4.973  1.00  0.00     0.198 C 
BRANCH  61  62
ATOM     62  CB  CYS    10      -4.652   5.597   4.605  1.00  0.00     0.103 C 
ATOM     63  SG  CYS    10      -3.772   6.438   5.965  1.00  0.00    -0.080 SA
ENDBRANCH  61  62
BRANCH  61  64
ATOM     64  C   CYS    10      -4.922   3.229   5.029  1.00  0.00     0.275 C 
ATOM     65  O   CYS    10      -3.938   3.083   4.305  1.00  0.00    -0.268 OA
ATOM     66  N   GLY    11      -5.199   2.487   6.089  1.00  0.00    -0.225 NA
BRANCH  66  67
ATOM     67  CA  GLY    11      -5.169   1.018   6.028  1.00  0.00     0.226 C 
BRANCH  67  68
ATOM     68  C   GLY    11      -4.234   0.597   7.173  1.00  0.00     0.211 C 
ATOM     69  O2  GLY    11      -3.174   1.252   7.272  1.00  0.00    -0.646 OA
ATOM     70  O1  GLY    11      -4.756  -0.069   8.096  1.00  0.00    -0.646 OA
ENDBRANCH  67  68
ENDBRANCH  66  67
ENDBRANCH  61  64
ENDBRANCH  60  61
ENDBRANCH  57  58
ENDBRANCH  55  57
ENDBRANCH  53  54
ENDBRANCH  52  53
ENDBRANCH  49  50
BRANCH  49  71
ATOM     71  CB  SER     7      -8.236  -2.389   2.689  1.00  0.00     0.216 C 
ATOM     72  OG  SER     7      -9.185  -2.595   1.641  1.00  0.00    -0.218 OA
ENDBRANCH  49  71
ENDBRANCH  47  49
ENDBRANCH  42  46
ENDBRANCH   1  39
TORSDOF 33
ENDMDL
MODEL 4
REMARK VINA RESULT:      -5.2      7.552     13.749
REMARK WARNING: 32 MAX_TORS EXCEEDED!!!
REMARK  33 active torsions:
REMARK  status: ('A' for Active; 'I' for Inactive)
REMARK    1  A    between atoms: CA_2  and  C_8 
REMARK    2  A    between atoms: CA_2  and  CB_3 
REMARK    3  A    between atoms: CB_3  and  CG_4 
REMARK    4  A    between atoms: CG_4  and  CD_5 
REMARK       I    between atoms: C_8  and  N_10 
REMARK    5  A    between atoms: N_10  and  CA_11 
REMARK    6  A    between atoms: CA_11  and  C_12 
REMARK       I    between atoms: C_12  and  N_14 
REMARK    7  A    between atoms: N_14  and  CA_15 
REMARK    8  A    between atoms: CA_15  and  C_20 
REMARK    9  A    between atoms: CA_15  and  CB_16 
REMARK   10  A    between atoms: CB_16  and  CG_17 
REMARK       I    between atoms: C_20  and  N_22 
REMARK   11  A    between atoms: N_22  and  CA_23 
REMARK   12  A    between atoms: CA_23  and  CB_24 
REMARK   13  A    between atoms: CA_23  and  C_28 
REMARK   14  A    between atoms: CB_24  and  CG_25 
REMARK       I    between atoms: C_28  and  N_30 
REMARK   15  A    between atoms: N_30  and  CA_31 
REMARK   16  A    between atoms: CA_31  and  CB_32 
REMARK   17  A    between atoms: CA_31  and  C_39 
REMARK   18  A    between atoms: CB_32  and  CG_33 
REMARK   19  A    between atoms: CG_33  and  CD_34 
REMARK   20  A    between atoms: CD_34  and  NE_35 
REMARK       I    between atoms: C_39  and  N_41 
REMARK   21  A    between atoms: CA_42  and  C_46 
REMARK       I    between atoms: C_46  and  N_48 
REMARK   22  A    between atoms: N_48  and  CA_49 
REMARK   23  A    between atoms: CA_49  and  C_52 
REMARK   24  A    between atoms: CA_49  and  CB_50 
REMARK       I    between atoms: C_52  and  N_54 
REMARK   25  A    between atoms: N_54  and  CA_55 
REMARK   26  A    between atoms: CA_55  and  C_56 
REMARK       I    between atoms: C_56  and  N_58 
REMARK   27  A    between atoms: N_58  and  CA_59 
REMARK   28  A    between atoms: CA_59  and  C_60 
REMARK       I    between atoms: C_60  and  N_62 
REMARK   29  A    between atoms: N_62  and  CA_63 
REMARK   30  A    between atoms: CA_63  and  CB_64 
REMARK   31  A    between atoms: CA_63  and  C_66 
REMARK       I    between atoms: C_66  and  N_68 
REMARK   32  A    between atoms: N_68  and  CA_69 
REMARK   33  A    between atoms: CA_69  and  C_70 
ROOT
ATOM      1  CA  ARG     5      -9.370  -7.011   7.081  1.00  0.00     0.185 C 
ENDROOT
BRANCH   1   2
ATOM      2  N   ARG     5      -8.133  -7.704   7.486  1.00  0.00    -0.229 NA
ATOM      3  C   ASN     4      -7.136  -7.166   8.171  1.00  0.00     0.275 C 
ATOM      4  O   ASN     4      -6.989  -5.960   8.342  1.00  0.00    -0.268 OA
BRANCH   3   5
ATOM      5  CA  ASN     4      -5.994  -8.167   8.445  1.00  0.00     0.196 C 
BRANCH   5   6
ATOM      6  N   ASN     4      -6.235  -9.441   7.736  1.00  0.00    -0.228 NA
ATOM      7  C   LEU     3      -6.645 -10.549   8.349  1.00  0.00     0.274 C 
ATOM      8  O   LEU     3      -6.878 -10.644   9.558  1.00  0.00    -0.268 OA
BRANCH   7   9
ATOM      9  CA  LEU     3      -6.887 -11.743   7.426  1.00  0.00     0.186 C 
BRANCH   9  10
ATOM     10  N   LEU     3      -7.883 -11.379   6.394  1.00  0.00    -0.229 NA
ATOM     11  C   GLY     2      -9.197 -11.554   6.561  1.00  0.00     0.277 C 
ATOM     12  O   GLY     2      -9.700 -11.880   7.626  1.00  0.00    -0.268 OA
BRANCH  11  13
ATOM     13  CA  GLY     2     -10.090 -11.154   5.368  1.00  0.00     0.218 C 
BRANCH  13  14
ATOM     14  N   GLY     2     -10.417  -9.718   5.190  1.00  0.00    -0.226 NA
ATOM     15  C   GLU     1     -11.452  -9.313   4.445  1.00  0.00     0.289 C 
ATOM     16  O   GLU     1     -12.270 -10.110   4.016  1.00  0.00    -0.268 OA
BRANCH  15  17
ATOM     17  CA  GLU     1     -11.648  -7.792   4.205  1.00  0.00     0.381 C 
ATOM     18  N   GLU     1     -11.801  -7.432   2.784  1.00  0.00     0.626 N 
BRANCH  17  19
ATOM     19  CB  GLU     1     -12.856  -7.316   5.037  1.00  0.00     0.060 C 
BRANCH  19  20
ATOM     20  CG  GLU     1     -12.809  -5.938   5.715  1.00  0.00     0.100 C 
BRANCH  20  21
ATOM     21  CD  GLU     1     -13.990  -5.040   5.321  1.00  0.00     0.185 C 
ATOM     22  OE1 GLU     1     -14.083  -3.919   5.853  1.00  0.00    -0.647 OA
ATOM     23  OE2 GLU     1     -14.824  -5.480   4.511  1.00  0.00    -0.647 OA
ENDBRANCH  20  21
ENDBRANCH  19  20
ENDBRANCH  17  19
ENDBRANCH  15  17
ENDBRANCH  13  14
ENDBRANCH  11  13
ENDBRANCH   9  10
BRANCH   9  24
ATOM     24  CB  LEU     3      -5.557 -12.139   6.773  1.00  0.00     0.034 C 
BRANCH  24  25
ATOM     25  CG  LEU     3      -4.798 -13.245   7.528  1.00  0.00     0.002 C 
ATOM     26  CD1 LEU     3      -3.656 -12.623   8.329  1.00  0.00     0.000 C 
ATOM     27  CD2 LEU     3      -5.733 -14.021   8.462  1.00  0.00     0.000 C 
ENDBRANCH  24  25
ENDBRANCH   9  24
ENDBRANCH   7   9
ENDBRANCH   5   6
BRANCH   5  28
ATOM     28  CB  ASN     4      -4.627  -7.586   8.043  1.00  0.00     0.126 C 
BRANCH  28  29
ATOM     29  CG  ASN     4      -3.501  -7.903   9.046  1.00  0.00     0.276 C 
ATOM     30  ND2 ASN     4      -3.671  -8.959   9.795  1.00  0.00    -0.107 N 
ATOM     31  OD1 ASN     4      -2.464  -7.271   9.123  1.00  0.00    -0.269 OA
ENDBRANCH  28  29
ENDBRANCH   5  28
ENDBRANCH   3   5
ENDBRANCH   1   2
BRANCH   1  32
ATOM     32  CB  ARG     5     -10.211  -6.649   8.310  1.00  0.00     0.036 C 
BRANCH  32  33
ATOM     33  CG  ARG     5     -10.665  -7.860   9.127  1.00  0.00     0.029 C 
BRANCH  33  34
ATOM     34  CD  ARG     5     -11.563  -8.744   8.269  1.00  0.00     0.145 C 
BRANCH  34  35
ATOM     35  NE  ARG     5     -12.152  -9.859   9.049  1.00  0.00    -0.083 NA
ATOM     36  CZ  ARG     5     -12.898 -10.846   8.530  1.00  0.00     0.782 C 
ATOM     37  NH2 ARG     5     -13.189 -11.945   9.244  1.00  0.00     0.063 N 
ATOM     38  NH1 ARG     5     -13.270 -10.833   7.258  1.00  0.00     0.063 N 
ENDBRANCH  34  35
ENDBRANCH  33  34
ENDBRANCH  32  33
ENDBRANCH   1  32
BRANCH   1  39
ATOM     39  C   ARG     5      -9.011  -5.729   6.306  1.00  0.00     0.256 C 
ATOM     40  O   ARG     5      -9.147  -4.628   6.847  1.00  0.00    -0.270 OA
ATOM     41  N   PRO     6      -8.464  -5.879   5.096  1.00  0.00    -0.312 N 
ATOM     42  CA  PRO     6      -8.092  -4.756   4.206  1.00  0.00     0.165 C 
ATOM     43  CD  PRO     6      -7.996  -7.159   4.519  1.00  0.00     0.105 C 
ATOM     44  CB  PRO     6      -7.610  -5.422   2.917  1.00  0.00     0.034 C 
ATOM     45  CG  PRO     6      -7.031  -6.740   3.409  1.00  0.00     0.027 C 
BRANCH  42  46
ATOM     46  C   PRO     6      -9.294  -3.836   3.933  1.00  0.00     0.272 C 
ATOM     47  N   SER     7      -9.151  -2.524   4.060  1.00  0.00    -0.226 NA
ATOM     48  O   PRO     6     -10.405  -4.323   3.703  1.00  0.00    -0.269 OA
BRANCH  47  49
ATOM     49  CA  SER     7      -7.920  -1.800   4.461  1.00  0.00     0.219 C 
BRANCH  49  50
ATOM     50  C   SER     7      -8.237  -0.435   5.098  1.00  0.00     0.277 C 
ATOM     51  O   SER     7      -8.452  -0.371   6.303  1.00  0.00    -0.268 OA
ATOM     52  N   GLY     8      -8.023   0.624   4.329  1.00  0.00    -0.226 NA
BRANCH  52  53
ATOM     53  CA  GLY     8      -8.475   1.985   4.721  1.00  0.00     0.218 C 
BRANCH  53  54
ATOM     54  C   GLY     8      -7.404   3.040   5.048  1.00  0.00     0.277 C 
ATOM     55  N   GLY     9      -6.382   2.655   5.826  1.00  0.00    -0.226 NA
ATOM     56  O   GLY     8      -7.481   4.161   4.572  1.00  0.00    -0.268 OA
BRANCH  55  57
ATOM     57  CA  GLY     9      -5.304   3.570   6.253  1.00  0.00     0.218 C 
BRANCH  57  58
ATOM     58  C   GLY     9      -3.990   3.295   5.484  1.00  0.00     0.277 C 
ATOM     59  O   GLY     9      -3.977   3.398   4.264  1.00  0.00    -0.268 OA
ATOM     60  N   CYS    10      -2.922   2.790   6.083  1.00  0.00    -0.228 NA
BRANCH  60  61
ATOM     61  CA  CYS    10      -2.782   2.375   7.500  1.00  0.00     0.198 C 
BRANCH  61  62
ATOM     62  CB  CYS    10      -3.164   0.907   7.720  1.00  0.00     0.103 C 
ATOM     63  SG  CYS    10      -4.666   0.551   8.695  1.00  0.00    -0.080 SA
ENDBRANCH  61  62
BRANCH  61  64
ATOM     64  C   CYS    10      -1.356   2.483   8.045  1.00  0.00     0.275 C 
ATOM     65  O   CYS    10      -0.840   1.502   8.577  1.00  0.00    -0.268 OA
ATOM     66  N   GLY    11      -0.695   3.543   7.607  1.00  0.00    -0.225 NA
BRANCH  66  67
ATOM     67  CA  GLY    11       0.301   4.227   8.444  1.00  0.00     0.226 C 
BRANCH  67  68
ATOM     68  C   GLY    11       1.115   5.085   7.462  1.00  0.00     0.211 C 
ATOM     69  O2  GLY    11       0.457   5.629   6.549  1.00  0.00    -0.646 OA
ATOM     70  O1  GLY    11       2.241   5.463   7.860  1.00  0.00    -0.646 OA
ENDBRANCH  67  68
ENDBRANCH  66  67
ENDBRANCH  61  64
ENDBRANCH  60  61
ENDBRANCH  57  58
ENDBRANCH  55  57
ENDBRANCH  53  54
ENDBRANCH  52  53
ENDBRANCH  49  50
BRANCH  49  71
ATOM     71  CB  SER     7      -7.001  -1.542   3.265  1.00  0.00     0.216 C 
ATOM     72  OG  SER     7      -5.637  -1.713   3.654  1.00  0.00    -0.218 OA
ENDBRANCH  49  71
ENDBRANCH  47  49
ENDBRANCH  42  46
ENDBRANCH   1  39
TORSDOF 33
ENDMDL
MODEL 5
REMARK VINA RESULT:      -5.2      7.493     14.992
REMARK WARNING: 32 MAX_TORS EXCEEDED!!!
REMARK  33 active torsions:
REMARK  status: ('A' for Active; 'I' for Inactive)
REMARK    1  A    between atoms: CA_2  and  C_8 
REMARK    2  A    between atoms: CA_2  and  CB_3 
REMARK    3  A    between atoms: CB_3  and  CG_4 
REMARK    4  A    between atoms: CG_4  and  CD_5 
REMARK       I    between atoms: C_8  and  N_10 
REMARK    5  A    between atoms: N_10  and  CA_11 
REMARK    6  A    between atoms: CA_11  and  C_12 
REMARK       I    between atoms: C_12  and  N_14 
REMARK    7  A    between atoms: N_14  and  CA_15 
REMARK    8  A    between atoms: CA_15  and  C_20 
REMARK    9  A    between atoms: CA_15  and  CB_16 
REMARK   10  A    between atoms: CB_16  and  CG_17 
REMARK       I    between atoms: C_20  and  N_22 
REMARK   11  A    between atoms: N_22  and  CA_23 
REMARK   12  A    between atoms: CA_23  and  CB_24 
REMARK   13  A    between atoms: CA_23  and  C_28 
REMARK   14  A    between atoms: CB_24  and  CG_25 
REMARK       I    between atoms: C_28  and  N_30 
REMARK   15  A    between atoms: N_30  and  CA_31 
REMARK   16  A    between atoms: CA_31  and  CB_32 
REMARK   17  A    between atoms: CA_31  and  C_39 
REMARK   18  A    between atoms: CB_32  and  CG_33 
REMARK   19  A    between atoms: CG_33  and  CD_34 
REMARK   20  A    between atoms: CD_34  and  NE_35 
REMARK       I    between atoms: C_39  and  N_41 
REMARK   21  A    between atoms: CA_42  and  C_46 
REMARK       I    between atoms: C_46  and  N_48 
REMARK   22  A    between atoms: N_48  and  CA_49 
REMARK   23  A    between atoms: CA_49  and  C_52 
REMARK   24  A    between atoms: CA_49  and  CB_50 
REMARK       I    between atoms: C_52  and  N_54 
REMARK   25  A    between atoms: N_54  and  CA_55 
REMARK   26  A    between atoms: CA_55  and  C_56 
REMARK       I    between atoms: C_56  and  N_58 
REMARK   27  A    between atoms: N_58  and  CA_59 
REMARK   28  A    between atoms: CA_59  and  C_60 
REMARK       I    between atoms: C_60  and  N_62 
REMARK   29  A    between atoms: N_62  and  CA_63 
REMARK   30  A    between atoms: CA_63  and  CB_64 
REMARK   31  A    between atoms: CA_63  and  C_66 
REMARK       I    between atoms: C_66  and  N_68 
REMARK   32  A    between atoms: N_68  and  CA_69 
REMARK   33  A    between atoms: CA_69  and  C_70 
ROOT
ATOM      1  CA  ARG     5     -10.016  -3.953   6.493  1.00  0.00     0.185 C 
ENDROOT
BRANCH   1   2
ATOM      2  N   ARG     5      -8.839  -4.795   6.209  1.00  0.00    -0.229 NA
ATOM      3  C   ASN     4      -8.859  -6.100   5.990  1.00  0.00     0.275 C 
ATOM      4  O   ASN     4      -9.815  -6.827   6.240  1.00  0.00    -0.268 OA
BRANCH   3   5
ATOM      5  CA  ASN     4      -7.456  -6.678   5.710  1.00  0.00     0.196 C 
BRANCH   5   6
ATOM      6  N   ASN     4      -7.148  -7.780   6.647  1.00  0.00    -0.228 NA
ATOM      7  C   LEU     3      -6.694  -7.580   7.882  1.00  0.00     0.274 C 
ATOM      8  O   LEU     3      -6.486  -6.474   8.389  1.00  0.00    -0.268 OA
BRANCH   7   9
ATOM      9  CA  LEU     3      -6.491  -8.851   8.706  1.00  0.00     0.186 C 
BRANCH   9  10
ATOM     10  N   LEU     3      -6.149  -9.976   7.807  1.00  0.00    -0.229 NA
ATOM     11  C   GLY     2      -6.467 -11.244   8.080  1.00  0.00     0.277 C 
ATOM     12  O   GLY     2      -7.196 -11.568   9.006  1.00  0.00    -0.268 OA
BRANCH  11  13
ATOM     13  CA  GLY     2      -6.001 -12.295   7.050  1.00  0.00     0.218 C 
BRANCH  13  14
ATOM     14  N   GLY     2      -7.003 -13.256   6.530  1.00  0.00    -0.226 NA
ATOM     15  C   GLU     1      -7.748 -12.990   5.451  1.00  0.00     0.289 C 
ATOM     16  O   GLU     1      -7.520 -12.017   4.752  1.00  0.00    -0.268 OA
BRANCH  15  17
ATOM     17  CA  GLU     1      -8.863 -13.992   5.048  1.00  0.00     0.381 C 
ATOM     18  N   GLU     1      -9.952 -14.095   6.036  1.00  0.00     0.626 N 
BRANCH  17  19
ATOM     19  CB  GLU     1      -9.402 -13.593   3.659  1.00  0.00     0.060 C 
BRANCH  19  20
ATOM     20  CG  GLU     1      -9.534 -14.665   2.566  1.00  0.00     0.100 C 
BRANCH  20  21
ATOM     21  CD  GLU     1     -10.792 -15.531   2.731  1.00  0.00     0.185 C 
ATOM     22  OE1 GLU     1     -10.753 -16.711   2.336  1.00  0.00    -0.647 OA
ATOM     23  OE2 GLU     1     -11.809 -15.012   3.223  1.00  0.00    -0.647 OA
ENDBRANCH  20  21
ENDBRANCH  19  20
ENDBRANCH  17  19
ENDBRANCH  15  17
ENDBRANCH  13  14
ENDBRANCH  11  13
ENDBRANCH   9  10
BRANCH   9  24
ATOM     24  CB  LEU     3      -5.362  -8.608   9.715  1.00  0.00     0.034 C 
BRANCH  24  25
ATOM     25  CG  LEU     3      -3.956  -8.893   9.157  1.00  0.00     0.002 C 
ATOM     26  CD1 LEU     3      -3.171  -7.586   9.062  1.00  0.00     0.000 C 
ATOM     27  CD2 LEU     3      -3.202  -9.895  10.037  1.00  0.00     0.000 C 
ENDBRANCH  24  25
ENDBRANCH   9  24
ENDBRANCH   7   9
ENDBRANCH   5   6
BRANCH   5  28
ATOM     28  CB  ASN     4      -7.328  -7.166   4.257  1.00  0.00     0.126 C 
BRANCH  28  29
ATOM     29  CG  ASN     4      -6.786  -6.095   3.290  1.00  0.00     0.276 C 
ATOM     30  ND2 ASN     4      -7.657  -5.244   2.819  1.00  0.00    -0.107 N 
ATOM     31  OD1 ASN     4      -5.609  -5.971   3.006  1.00  0.00    -0.269 OA
ENDBRANCH  28  29
ENDBRANCH   5  28
ENDBRANCH   3   5
ENDBRANCH   1   2
BRANCH   1  32
ATOM     32  CB  ARG     5     -10.200  -3.778   8.004  1.00  0.00     0.036 C 
BRANCH  32  33
ATOM     33  CG  ARG     5      -8.920  -3.993   8.813  1.00  0.00     0.029 C 
BRANCH  33  34
ATOM     34  CD  ARG     5      -8.783  -2.885   9.851  1.00  0.00     0.145 C 
BRANCH  34  35
ATOM     35  NE  ARG     5      -7.681  -1.949   9.522  1.00  0.00    -0.083 NA
ATOM     36  CZ  ARG     5      -7.817  -0.621   9.397  1.00  0.00     0.782 C 
ATOM     37  NH2 ARG     5      -6.743   0.185   9.342  1.00  0.00     0.063 N 
ATOM     38  NH1 ARG     5      -9.007  -0.041   9.450  1.00  0.00     0.063 N 
ENDBRANCH  34  35
ENDBRANCH  33  34
ENDBRANCH  32  33
ENDBRANCH   1  32
BRANCH   1  39
ATOM     39  C   ARG     5      -9.834  -2.573   5.833  1.00  0.00     0.256 C 
ATOM     40  O   ARG     5      -9.173  -1.702   6.406  1.00  0.00    -0.270 OA
ATOM     41  N   PRO     6     -10.325  -2.416   4.600  1.00  0.00    -0.312 N 
ATOM     42  CA  PRO     6     -10.267  -1.149   3.837  1.00  0.00     0.165 C 
ATOM     43  CD  PRO     6     -10.854  -3.500   3.743  1.00  0.00     0.105 C 
ATOM     44  CB  PRO     6     -11.038  -1.433   2.547  1.00  0.00     0.034 C 
ATOM     45  CG  PRO     6     -10.802  -2.920   2.328  1.00  0.00     0.027 C 
BRANCH  42  46
ATOM     46  C   PRO     6     -10.913   0.007   4.619  1.00  0.00     0.272 C 
ATOM     47  N   SER     7     -10.267   1.161   4.726  1.00  0.00    -0.226 NA
ATOM     48  O   PRO     6     -11.970  -0.175   5.229  1.00  0.00    -0.269 OA
BRANCH  47  49
ATOM     49  CA  SER     7      -8.934   1.487   4.166  1.00  0.00     0.219 C 
BRANCH  49  50
ATOM     50  C   SER     7      -7.883   1.701   5.269  1.00  0.00     0.277 C 
ATOM     51  O   SER     7      -8.193   1.506   6.439  1.00  0.00    -0.268 OA
ATOM     52  N   GLY     8      -6.634   1.859   4.853  1.00  0.00    -0.226 NA
BRANCH  52  53
ATOM     53  CA  GLY     8      -5.545   2.283   5.773  1.00  0.00     0.218 C 
BRANCH  53  54
ATOM     54  C   GLY     8      -4.631   3.440   5.333  1.00  0.00     0.277 C 
ATOM     55  N   GLY     9      -4.695   4.575   6.043  1.00  0.00    -0.226 NA
ATOM     56  O   GLY     8      -3.858   3.290   4.401  1.00  0.00    -0.268 OA
BRANCH  55  57
ATOM     57  CA  GLY     9      -3.906   5.779   5.712  1.00  0.00     0.218 C 
BRANCH  57  58
ATOM     58  C   GLY     9      -2.721   5.965   6.689  1.00  0.00     0.277 C 
ATOM     59  O   GLY     9      -2.028   4.999   6.984  1.00  0.00    -0.268 OA
ATOM     60  N   CYS    10      -2.530   7.099   7.349  1.00  0.00    -0.228 NA
BRANCH  60  61
ATOM     61  CA  CYS    10      -3.370   8.321   7.323  1.00  0.00     0.198 C 
BRANCH  61  62
ATOM     62  CB  CYS    10      -3.505   8.968   8.707  1.00  0.00     0.103 C 
ATOM     63  SG  CYS    10      -4.697   8.237   9.880  1.00  0.00    -0.080 SA
ENDBRANCH  61  62
BRANCH  61  64
ATOM     64  C   CYS    10      -2.821   9.438   6.432  1.00  0.00     0.275 C 
ATOM     65  O   CYS    10      -3.574   9.998   5.638  1.00  0.00    -0.268 OA
ATOM     66  N   GLY    11      -1.650   9.910   6.828  1.00  0.00    -0.225 NA
BRANCH  66  67
ATOM     67  CA  GLY    11      -0.652  10.398   5.864  1.00  0.00     0.226 C 
BRANCH  67  68
ATOM     68  C   GLY    11       0.666   9.737   6.296  1.00  0.00     0.211 C 
ATOM     69  O2  GLY    11       1.335   9.218   5.376  1.00  0.00    -0.646 OA
ATOM     70  O1  GLY    11       1.124  10.091   7.407  1.00  0.00    -0.646 OA
ENDBRANCH  67  68
ENDBRANCH  66  67
ENDBRANCH  61  64
ENDBRANCH  60  61
ENDBRANCH  57  58
ENDBRANCH  55  57
ENDBRANCH  53  54
ENDBRANCH  52  53
ENDBRANCH  49  50
BRANCH  49  71
ATOM     71  CB  SER     7      -8.972   2.761   3.319  1.00  0.00     0.216 C 
ATOM     72  OG  SER     7     -10.211   2.839   2.614  1.00  0.00    -0.218 OA
ENDBRANCH  49  71
ENDBRANCH  47  49
ENDBRANCH  42  46
ENDBRANCH   1  39
TORSDOF 33
ENDMDL
MODEL 6
REMARK VINA RESULT:      -5.2      6.524     15.334
REMARK WARNING: 32 MAX_TORS EXCEEDED!!!
REMARK  33 active torsions:
REMARK  status: ('A' for Active; 'I' for Inactive)
REMARK    1  A    between atoms: CA_2  and  C_8 
REMARK    2  A    between atoms: CA_2  and  CB_3 
REMARK    3  A    between atoms: CB_3  and  CG_4 
REMARK    4  A    between atoms: CG_4  and  CD_5 
REMARK       I    between atoms: C_8  and  N_10 
REMARK    5  A    between atoms: N_10  and  CA_11 
REMARK    6  A    between atoms: CA_11  and  C_12 
REMARK       I    between atoms: C_12  and  N_14 
REMARK    7  A    between atoms: N_14  and  CA_15 
REMARK    8  A    between atoms: CA_15  and  C_20 
REMARK    9  A    between atoms: CA_15  and  CB_16 
REMARK   10  A    between atoms: CB_16  and  CG_17 
REMARK       I    between atoms: C_20  and  N_22 
REMARK   11  A    between atoms: N_22  and  CA_23 
REMARK   12  A    between atoms: CA_23  and  CB_24 
REMARK   13  A    between atoms: CA_23  and  C_28 
REMARK   14  A    between atoms: CB_24  and  CG_25 
REMARK       I    between atoms: C_28  and  N_30 
REMARK   15  A    between atoms: N_30  and  CA_31 
REMARK   16  A    between atoms: CA_31  and  CB_32 
REMARK   17  A    between atoms: CA_31  and  C_39 
REMARK   18  A    between atoms: CB_32  and  CG_33 
REMARK   19  A    between atoms: CG_33  and  CD_34 
REMARK   20  A    between atoms: CD_34  and  NE_35 
REMARK       I    between atoms: C_39  and  N_41 
REMARK   21  A    between atoms: CA_42  and  C_46 
REMARK       I    between atoms: C_46  and  N_48 
REMARK   22  A    between atoms: N_48  and  CA_49 
REMARK   23  A    between atoms: CA_49  and  C_52 
REMARK   24  A    between atoms: CA_49  and  CB_50 
REMARK       I    between atoms: C_52  and  N_54 
REMARK   25  A    between atoms: N_54  and  CA_55 
REMARK   26  A    between atoms: CA_55  and  C_56 
REMARK       I    between atoms: C_56  and  N_58 
REMARK   27  A    between atoms: N_58  and  CA_59 
REMARK   28  A    between atoms: CA_59  and  C_60 
REMARK       I    between atoms: C_60  and  N_62 
REMARK   29  A    between atoms: N_62  and  CA_63 
REMARK   30  A    between atoms: CA_63  and  CB_64 
REMARK   31  A    between atoms: CA_63  and  C_66 
REMARK       I    between atoms: C_66  and  N_68 
REMARK   32  A    between atoms: N_68  and  CA_69 
REMARK   33  A    between atoms: CA_69  and  C_70 
ROOT
ATOM      1  CA  ARG     5      -7.746  -6.449   6.974  1.00  0.00     0.185 C 
ENDROOT
BRANCH   1   2
ATOM      2  N   ARG     5      -8.679  -6.171   5.866  1.00  0.00    -0.229 NA
ATOM      3  C   ASN     4      -8.338  -5.969   4.603  1.00  0.00     0.275 C 
ATOM      4  O   ASN     4      -7.194  -5.735   4.226  1.00  0.00    -0.268 OA
BRANCH   3   5
ATOM      5  CA  ASN     4      -9.556  -5.717   3.690  1.00  0.00     0.196 C 
BRANCH   5   6
ATOM      6  N   ASN     4      -9.465  -4.387   3.053  1.00  0.00    -0.228 NA
ATOM      7  C   LEU     3      -9.993  -3.286   3.584  1.00  0.00     0.274 C 
ATOM      8  O   LEU     3     -10.603  -3.241   4.656  1.00  0.00    -0.268 OA
BRANCH   7   9
ATOM      9  CA  LEU     3      -9.740  -2.004   2.792  1.00  0.00     0.186 C 
BRANCH   9  10
ATOM     10  N   LEU     3      -8.326  -1.596   2.948  1.00  0.00    -0.229 NA
ATOM     11  C   GLY     2      -7.912  -0.770   3.913  1.00  0.00     0.277 C 
ATOM     12  O   GLY     2      -8.626  -0.407   4.836  1.00  0.00    -0.268 OA
BRANCH  11  13
ATOM     13  CA  GLY     2      -6.409  -0.420   3.906  1.00  0.00     0.218 C 
BRANCH  13  14
ATOM     14  N   GLY     2      -6.002   0.924   4.383  1.00  0.00    -0.226 NA
ATOM     15  C   GLU     1      -5.544   1.127   5.623  1.00  0.00     0.289 C 
ATOM     16  O   GLU     1      -5.284   0.191   6.361  1.00  0.00    -0.268 OA
BRANCH  15  17
ATOM     17  CA  GLU     1      -5.261   2.582   6.085  1.00  0.00     0.381 C 
ATOM     18  N   GLU     1      -4.147   2.693   7.043  1.00  0.00     0.626 N 
BRANCH  17  19
ATOM     19  CB  GLU     1      -5.016   3.454   4.837  1.00  0.00     0.060 C 
BRANCH  19  20
ATOM     20  CG  GLU     1      -5.655   4.849   4.754  1.00  0.00     0.100 C 
BRANCH  20  21
ATOM     21  CD  GLU     1      -4.845   5.920   5.501  1.00  0.00     0.185 C 
ATOM     22  OE1 GLU     1      -5.081   6.104   6.709  1.00  0.00    -0.647 OA
ATOM     23  OE2 GLU     1      -4.009   6.582   4.862  1.00  0.00    -0.647 OA
ENDBRANCH  20  21
ENDBRANCH  19  20
ENDBRANCH  17  19
ENDBRANCH  15  17
ENDBRANCH  13  14
ENDBRANCH  11  13
ENDBRANCH   9  10
BRANCH   9  24
ATOM     24  CB  LEU     3     -10.065  -2.264   1.316  1.00  0.00     0.034 C 
BRANCH  24  25
ATOM     25  CG  LEU     3     -11.276  -1.469   0.796  1.00  0.00     0.002 C 
ATOM     26  CD1 LEU     3     -12.361  -2.440   0.333  1.00  0.00     0.000 C 
ATOM     27  CD2 LEU     3     -11.833  -0.537   1.878  1.00  0.00     0.000 C 
ENDBRANCH  24  25
ENDBRANCH   9  24
ENDBRANCH   7   9
ENDBRANCH   5   6
BRANCH   5  28
ATOM     28  CB  ASN     4      -9.692  -6.812   2.618  1.00  0.00     0.126 C 
BRANCH  28  29
ATOM     29  CG  ASN     4     -11.152  -7.116   2.226  1.00  0.00     0.276 C 
ATOM     30  ND2 ASN     4     -12.076  -6.634   3.013  1.00  0.00    -0.107 N 
ATOM     31  OD1 ASN     4     -11.472  -7.711   1.215  1.00  0.00    -0.269 OA
ENDBRANCH  28  29
ENDBRANCH   5  28
ENDBRANCH   3   5
ENDBRANCH   1   2
BRANCH   1  32
ATOM     32  CB  ARG     5      -8.393  -6.106   8.320  1.00  0.00     0.036 C 
BRANCH  32  33
ATOM     33  CG  ARG     5      -8.467  -4.605   8.606  1.00  0.00     0.029 C 
BRANCH  33  34
ATOM     34  CD  ARG     5      -9.365  -4.363   9.815  1.00  0.00     0.145 C 
BRANCH  34  35
ATOM     35  NE  ARG     5     -10.323  -5.475  10.026  1.00  0.00    -0.083 NA
ATOM     36  CZ  ARG     5     -11.644  -5.323  10.202  1.00  0.00     0.782 C 
ATOM     37  NH2 ARG     5     -12.478  -6.375  10.141  1.00  0.00     0.063 N 
ATOM     38  NH1 ARG     5     -12.192  -4.121  10.316  1.00  0.00     0.063 N 
ENDBRANCH  34  35
ENDBRANCH  33  34
ENDBRANCH  32  33
ENDBRANCH   1  32
BRANCH   1  39
ATOM     39  C   ARG     5      -7.354  -7.938   6.955  1.00  0.00     0.256 C 
ATOM     40  O   ARG     5      -7.996  -8.732   6.261  1.00  0.00    -0.270 OA
ATOM     41  N   PRO     6      -6.252  -8.288   7.626  1.00  0.00    -0.312 N 
ATOM     42  CA  PRO     6      -5.754  -9.677   7.740  1.00  0.00     0.165 C 
ATOM     43  CD  PRO     6      -5.275  -7.349   8.220  1.00  0.00     0.105 C 
ATOM     44  CB  PRO     6      -4.546  -9.585   8.674  1.00  0.00     0.034 C 
ATOM     45  CG  PRO     6      -4.008  -8.188   8.399  1.00  0.00     0.027 C 
BRANCH  42  46
ATOM     46  C   PRO     6      -6.827 -10.613   8.321  1.00  0.00     0.272 C 
ATOM     47  N   SER     7      -6.980 -11.826   7.808  1.00  0.00    -0.226 NA
ATOM     48  O   PRO     6      -7.607 -10.197   9.183  1.00  0.00    -0.269 OA
BRANCH  47  49
ATOM     49  CA  SER     7      -6.214 -12.417   6.684  1.00  0.00     0.219 C 
BRANCH  49  50
ATOM     50  C   SER     7      -7.005 -13.528   5.970  1.00  0.00     0.277 C 
ATOM     51  O   SER     7      -7.728 -14.268   6.629  1.00  0.00    -0.268 OA
ATOM     52  N   GLY     8      -7.032 -13.458   4.646  1.00  0.00    -0.226 NA
BRANCH  52  53
ATOM     53  CA  GLY     8      -7.570 -14.563   3.810  1.00  0.00     0.218 C 
BRANCH  53  54
ATOM     54  C   GLY     8      -9.005 -14.431   3.268  1.00  0.00     0.277 C 
ATOM     55  N   GLY     9      -9.722 -13.376   3.684  1.00  0.00    -0.226 NA
ATOM     56  O   GLY     8      -9.432 -15.240   2.461  1.00  0.00    -0.268 OA
BRANCH  55  57
ATOM     57  CA  GLY     9     -11.123 -13.144   3.277  1.00  0.00     0.218 C 
BRANCH  57  58
ATOM     58  C   GLY     9     -12.108 -13.498   4.416  1.00  0.00     0.277 C 
ATOM     59  O   GLY     9     -12.384 -14.672   4.628  1.00  0.00    -0.268 OA
ATOM     60  N   CYS    10     -12.794 -12.565   5.062  1.00  0.00    -0.228 NA
BRANCH  60  61
ATOM     61  CA  CYS    10     -12.792 -11.101   4.822  1.00  0.00     0.198 C 
BRANCH  61  62
ATOM     62  CB  CYS    10     -14.187 -10.483   4.966  1.00  0.00     0.103 C 
ATOM     63  SG  CYS    10     -14.673  -9.182   3.781  1.00  0.00    -0.080 SA
ENDBRANCH  61  62
BRANCH  61  64
ATOM     64  C   CYS    10     -11.922 -10.309   5.801  1.00  0.00     0.275 C 
ATOM     65  O   CYS    10     -11.402  -9.259   5.429  1.00  0.00    -0.268 OA
ATOM     66  N   GLY    11     -12.068 -10.676   7.064  1.00  0.00    -0.225 NA
BRANCH  66  67
ATOM     67  CA  GLY    11     -10.949 -10.618   8.015  1.00  0.00     0.226 C 
BRANCH  67  68
ATOM     68  C   GLY    11     -11.544  -9.986   9.283  1.00  0.00     0.211 C 
ATOM     69  O2  GLY    11     -10.714  -9.517  10.092  1.00  0.00    -0.646 OA
ATOM     70  O1  GLY    11     -12.753  -9.663   9.225  1.00  0.00    -0.646 OA
ENDBRANCH  67  68
ENDBRANCH  66  67
ENDBRANCH  61  64
ENDBRANCH  60  61
ENDBRANCH  57  58
ENDBRANCH  55  57
ENDBRANCH  53  54
ENDBRANCH  52  53
ENDBRANCH  49  50
BRANCH  49  71
ATOM     71  CB  SER     7      -4.895 -13.031   7.159  1.00  0.00     0.216 C 
ATOM     72  OG  SER     7      -5.054 -13.568   8.473  1.00  0.00    -0.218 OA
ENDBRANCH  49  71
ENDBRANCH  47  49
ENDBRANCH  42  46
ENDBRANCH   1  39
TORSDOF 33
ENDMDL
MODEL 7
REMARK VINA RESULT:      -5.1      3.629     14.922
REMARK WARNING: 32 MAX_TORS EXCEEDED!!!
REMARK  33 active torsions:
REMARK  status: ('A' for Active; 'I' for Inactive)
REMARK    1  A    between atoms: CA_2  and  C_8 
REMARK    2  A    between atoms: CA_2  and  CB_3 
REMARK    3  A    between atoms: CB_3  and  CG_4 
REMARK    4  A    between atoms: CG_4  and  CD_5 
REMARK       I    between atoms: C_8  and  N_10 
REMARK    5  A    between atoms: N_10  and  CA_11 
REMARK    6  A    between atoms: CA_11  and  C_12 
REMARK       I    between atoms: C_12  and  N_14 
REMARK    7  A    between atoms: N_14  and  CA_15 
REMARK    8  A    between atoms: CA_15  and  C_20 
REMARK    9  A    between atoms: CA_15  and  CB_16 
REMARK   10  A    between atoms: CB_16  and  CG_17 
REMARK       I    between atoms: C_20  and  N_22 
REMARK   11  A    between atoms: N_22  and  CA_23 
REMARK   12  A    between atoms: CA_23  and  CB_24 
REMARK   13  A    between atoms: CA_23  and  C_28 
REMARK   14  A    between atoms: CB_24  and  CG_25 
REMARK       I    between atoms: C_28  and  N_30 
REMARK   15  A    between atoms: N_30  and  CA_31 
REMARK   16  A    between atoms: CA_31  and  CB_32 
REMARK   17  A    between atoms: CA_31  and  C_39 
REMARK   18  A    between atoms: CB_32  and  CG_33 
REMARK   19  A    between atoms: CG_33  and  CD_34 
REMARK   20  A    between atoms: CD_34  and  NE_35 
REMARK       I    between atoms: C_39  and  N_41 
REMARK   21  A    between atoms: CA_42  and  C_46 
REMARK       I    between atoms: C_46  and  N_48 
REMARK   22  A    between atoms: N_48  and  CA_49 
REMARK   23  A    between atoms: CA_49  and  C_52 
REMARK   24  A    between atoms: CA_49  and  CB_50 
REMARK       I    between atoms: C_52  and  N_54 
REMARK   25  A    between atoms: N_54  and  CA_55 
REMARK   26  A    between atoms: CA_55  and  C_56 
REMARK       I    between atoms: C_56  and  N_58 
REMARK   27  A    between atoms: N_58  and  CA_59 
REMARK   28  A    between atoms: CA_59  and  C_60 
REMARK       I    between atoms: C_60  and  N_62 
REMARK   29  A    between atoms: N_62  and  CA_63 
REMARK   30  A    between atoms: CA_63  and  CB_64 
REMARK   31  A    between atoms: CA_63  and  C_66 
REMARK       I    between atoms: C_66  and  N_68 
REMARK   32  A    between atoms: N_68  and  CA_69 
REMARK   33  A    between atoms: CA_69  and  C_70 
ROOT
ATOM      1  CA  ARG     5      -5.292 -14.303   9.349  1.00  0.00     0.185 C 
ENDROOT
BRANCH   1   2
ATOM      2  N   ARG     5      -5.117 -12.993   8.696  1.00  0.00    -0.229 NA
ATOM      3  C   ASN     4      -5.425 -11.819   9.226  1.00  0.00     0.275 C 
ATOM      4  O   ASN     4      -6.126 -11.675  10.222  1.00  0.00    -0.268 OA
BRANCH   3   5
ATOM      5  CA  ASN     4      -5.104 -10.639   8.286  1.00  0.00     0.196 C 
BRANCH   5   6
ATOM      6  N   ASN     4      -6.267 -10.323   7.429  1.00  0.00    -0.228 NA
ATOM      7  C   LEU     3      -6.449 -10.854   6.223  1.00  0.00     0.274 C 
ATOM      8  O   LEU     3      -5.690 -11.665   5.685  1.00  0.00    -0.268 OA
BRANCH   7   9
ATOM      9  CA  LEU     3      -7.743 -10.437   5.524  1.00  0.00     0.186 C 
BRANCH   9  10
ATOM     10  N   LEU     3      -7.463  -9.334   4.579  1.00  0.00    -0.229 NA
ATOM     11  C   GLY     2      -8.120  -8.171   4.606  1.00  0.00     0.277 C 
ATOM     12  O   GLY     2      -8.892  -7.859   5.501  1.00  0.00    -0.268 OA
BRANCH  11  13
ATOM     13  CA  GLY     2      -7.725  -7.145   3.523  1.00  0.00     0.218 C 
BRANCH  13  14
ATOM     14  N   GLY     2      -8.521  -5.898   3.418  1.00  0.00    -0.226 NA
ATOM     15  C   GLU     1      -7.965  -4.688   3.547  1.00  0.00     0.289 C 
ATOM     16  O   GLU     1      -6.754  -4.552   3.590  1.00  0.00    -0.268 OA
BRANCH  15  17
ATOM     17  CA  GLU     1      -8.888  -3.440   3.552  1.00  0.00     0.381 C 
ATOM     18  N   GLU     1      -9.335  -3.041   4.898  1.00  0.00     0.626 N 
BRANCH  17  19
ATOM     19  CB  GLU     1      -8.155  -2.285   2.840  1.00  0.00     0.060 C 
BRANCH  19  20
ATOM     20  CG  GLU     1      -7.307  -1.306   3.667  1.00  0.00     0.100 C 
BRANCH  20  21
ATOM     21  CD  GLU     1      -7.937   0.091   3.767  1.00  0.00     0.185 C 
ATOM     22  OE1 GLU     1      -7.207   1.047   4.085  1.00  0.00    -0.647 OA
ATOM     23  OE2 GLU     1      -9.157   0.206   3.556  1.00  0.00    -0.647 OA
ENDBRANCH  20  21
ENDBRANCH  19  20
ENDBRANCH  17  19
ENDBRANCH  15  17
ENDBRANCH  13  14
ENDBRANCH  11  13
ENDBRANCH   9  10
BRANCH   9  24
ATOM     24  CB  LEU     3      -8.314 -11.650   4.780  1.00  0.00     0.034 C 
BRANCH  24  25
ATOM     25  CG  LEU     3      -9.655 -12.153   5.345  1.00  0.00     0.002 C 
ATOM     26  CD1 LEU     3     -10.639 -10.988   5.431  1.00  0.00     0.000 C 
ATOM     27  CD2 LEU     3     -10.239 -13.271   4.476  1.00  0.00     0.000 C 
ENDBRANCH  24  25
ENDBRANCH   9  24
ENDBRANCH   7   9
ENDBRANCH   5   6
BRANCH   5  28
ATOM     28  CB  ASN     4      -4.671  -9.391   9.075  1.00  0.00     0.126 C 
BRANCH  28  29
ATOM     29  CG  ASN     4      -4.014  -8.304   8.202  1.00  0.00     0.276 C 
ATOM     30  ND2 ASN     4      -3.241  -7.452   8.822  1.00  0.00    -0.107 N 
ATOM     31  OD1 ASN     4      -4.126  -8.245   6.993  1.00  0.00    -0.269 OA
ENDBRANCH  28  29
ENDBRANCH   5  28
ENDBRANCH   3   5
ENDBRANCH   1   2
BRANCH   1  32
ATOM     32  CB  ARG     5      -6.634 -14.927   8.950  1.00  0.00     0.036 C 
BRANCH  32  33
ATOM     33  CG  ARG     5      -7.176 -14.425   7.611  1.00  0.00     0.029 C 
BRANCH  33  34
ATOM     34  CD  ARG     5      -8.524 -15.081   7.331  1.00  0.00     0.145 C 
BRANCH  34  35
ATOM     35  NE  ARG     5      -8.383 -16.314   6.518  1.00  0.00    -0.083 NA
ATOM     36  CZ  ARG     5      -8.560 -17.560   6.981  1.00  0.00     0.782 C 
ATOM     37  NH2 ARG     5      -8.659 -18.604   6.142  1.00  0.00     0.063 N 
ATOM     38  NH1 ARG     5      -8.771 -17.795   8.268  1.00  0.00     0.063 N 
ENDBRANCH  34  35
ENDBRANCH  33  34
ENDBRANCH  32  33
ENDBRANCH   1  32
BRANCH   1  39
ATOM     39  C   ARG     5      -4.143 -15.242   8.936  1.00  0.00     0.256 C 
ATOM     40  O   ARG     5      -4.357 -16.156   8.133  1.00  0.00    -0.270 OA
ATOM     41  N   PRO     6      -2.923 -14.955   9.399  1.00  0.00    -0.312 N 
ATOM     42  CA  PRO     6      -1.718 -15.770   9.128  1.00  0.00     0.165 C 
ATOM     43  CD  PRO     6      -2.545 -13.713  10.109  1.00  0.00     0.105 C 
ATOM     44  CB  PRO     6      -0.605 -15.107   9.942  1.00  0.00     0.034 C 
ATOM     45  CG  PRO     6      -1.024 -13.645   9.964  1.00  0.00     0.027 C 
BRANCH  42  46
ATOM     46  C   PRO     6      -1.919 -17.232   9.563  1.00  0.00     0.272 C 
ATOM     47  N   SER     7      -1.202 -18.187   8.987  1.00  0.00    -0.226 NA
ATOM     48  O   PRO     6      -2.815 -17.520  10.361  1.00  0.00    -0.269 OA
BRANCH  47  49
ATOM     49  CA  SER     7      -0.187 -18.014   7.920  1.00  0.00     0.219 C 
BRANCH  49  50
ATOM     50  C   SER     7      -0.166 -19.206   6.947  1.00  0.00     0.277 C 
ATOM     51  O   SER     7       0.832 -19.917   6.891  1.00  0.00    -0.268 OA
ATOM     52  N   GLY     8      -1.330 -19.525   6.399  1.00  0.00    -0.226 NA
BRANCH  52  53
ATOM     53  CA  GLY     8      -1.435 -20.507   5.289  1.00  0.00     0.218 C 
BRANCH  53  54
ATOM     54  C   GLY     8      -2.826 -20.780   4.689  1.00  0.00     0.277 C 
ATOM     55  N   GLY     9      -2.890 -21.625   3.650  1.00  0.00    -0.226 NA
ATOM     56  O   GLY     8      -3.818 -20.270   5.184  1.00  0.00    -0.268 OA
BRANCH  55  57
ATOM     57  CA  GLY     9      -4.151 -21.948   2.950  1.00  0.00     0.218 C 
BRANCH  57  58
ATOM     58  C   GLY     9      -3.883 -22.643   1.594  1.00  0.00     0.277 C 
ATOM     59  O   GLY     9      -4.130 -22.046   0.554  1.00  0.00    -0.268 OA
ATOM     60  N   CYS    10      -3.551 -23.925   1.519  1.00  0.00    -0.228 NA
BRANCH  60  61
ATOM     61  CA  CYS    10      -3.417 -24.898   2.629  1.00  0.00     0.198 C 
BRANCH  61  62
ATOM     62  CB  CYS    10      -4.123 -26.226   2.332  1.00  0.00     0.103 C 
ATOM     63  SG  CYS    10      -5.598 -26.188   1.256  1.00  0.00    -0.080 SA
ENDBRANCH  61  62
BRANCH  61  64
ATOM     64  C   CYS    10      -1.972 -25.297   2.940  1.00  0.00     0.275 C 
ATOM     65  O   CYS    10      -1.292 -24.573   3.665  1.00  0.00    -0.268 OA
ATOM     66  N   GLY    11      -1.690 -26.556   2.647  1.00  0.00    -0.225 NA
BRANCH  66  67
ATOM     67  CA  GLY    11      -0.352 -26.957   2.189  1.00  0.00     0.226 C 
BRANCH  67  68
ATOM     68  C   GLY    11      -0.579 -27.553   0.791  1.00  0.00     0.211 C 
ATOM     69  O2  GLY    11      -0.574 -28.802   0.730  1.00  0.00    -0.646 OA
ATOM     70  O1  GLY    11      -1.104 -26.795  -0.056  1.00  0.00    -0.646 OA
ENDBRANCH  67  68
ENDBRANCH  66  67
ENDBRANCH  61  64
ENDBRANCH  60  61
ENDBRANCH  57  58
ENDBRANCH  55  57
ENDBRANCH  53  54
ENDBRANCH  52  53
ENDBRANCH  49  50
BRANCH  49  71
ATOM     71  CB  SER     7       1.223 -17.871   8.497  1.00  0.00     0.216 C 
ATOM     72  OG  SER     7       2.022 -17.062   7.635  1.00  0.00    -0.218 OA
ENDBRANCH  49  71
ENDBRANCH  47  49
ENDBRANCH  42  46
ENDBRANCH   1  39
TORSDOF 33
ENDMDL
MODEL 8
REMARK VINA RESULT:      -5.1      3.856      7.782
REMARK WARNING: 32 MAX_TORS EXCEEDED!!!
REMARK  33 active torsions:
REMARK  status: ('A' for Active; 'I' for Inactive)
REMARK    1  A    between atoms: CA_2  and  C_8 
REMARK    2  A    between atoms: CA_2  and  CB_3 
REMARK    3  A    between atoms: CB_3  and  CG_4 
REMARK    4  A    between atoms: CG_4  and  CD_5 
REMARK       I    between atoms: C_8  and  N_10 
REMARK    5  A    between atoms: N_10  and  CA_11 
REMARK    6  A    between atoms: CA_11  and  C_12 
REMARK       I    between atoms: C_12  and  N_14 
REMARK    7  A    between atoms: N_14  and  CA_15 
REMARK    8  A    between atoms: CA_15  and  C_20 
REMARK    9  A    between atoms: CA_15  and  CB_16 
REMARK   10  A    between atoms: CB_16  and  CG_17 
REMARK       I    between atoms: C_20  and  N_22 
REMARK   11  A    between atoms: N_22  and  CA_23 
REMARK   12  A    between atoms: CA_23  and  CB_24 
REMARK   13  A    between atoms: CA_23  and  C_28 
REMARK   14  A    between atoms: CB_24  and  CG_25 
REMARK       I    between atoms: C_28  and  N_30 
REMARK   15  A    between atoms: N_30  and  CA_31 
REMARK   16  A    between atoms: CA_31  and  CB_32 
REMARK   17  A    between atoms: CA_31  and  C_39 
REMARK   18  A    between atoms: CB_32  and  CG_33 
REMARK   19  A    between atoms: CG_33  and  CD_34 
REMARK   20  A    between atoms: CD_34  and  NE_35 
REMARK       I    between atoms: C_39  and  N_41 
REMARK   21  A    between atoms: CA_42  and  C_46 
REMARK       I    between atoms: C_46  and  N_48 
REMARK   22  A    between atoms: N_48  and  CA_49 
REMARK   23  A    between atoms: CA_49  and  C_52 
REMARK   24  A    between atoms: CA_49  and  CB_50 
REMARK       I    between atoms: C_52  and  N_54 
REMARK   25  A    between atoms: N_54  and  CA_55 
REMARK   26  A    between atoms: CA_55  and  C_56 
REMARK       I    between atoms: C_56  and  N_58 
REMARK   27  A    between atoms: N_58  and  CA_59 
REMARK   28  A    between atoms: CA_59  and  C_60 
REMARK       I    between atoms: C_60  and  N_62 
REMARK   29  A    between atoms: N_62  and  CA_63 
REMARK   30  A    between atoms: CA_63  and  CB_64 
REMARK   31  A    between atoms: CA_63  and  C_66 
REMARK       I    between atoms: C_66  and  N_68 
REMARK   32  A    between atoms: N_68  and  CA_69 
REMARK   33  A    between atoms: CA_69  and  C_70 
ROOT
ATOM      1  CA  ARG     5      -6.298 -20.662   5.581  1.00  0.00     0.185 C 
ENDROOT
BRANCH   1   2
ATOM      2  N   ARG     5      -6.086 -21.091   4.186  1.00  0.00    -0.229 NA
ATOM      3  C   ASN     4      -6.700 -22.100   3.588  1.00  0.00     0.275 C 
ATOM      4  O   ASN     4      -7.335 -22.968   4.178  1.00  0.00    -0.268 OA
BRANCH   3   5
ATOM      5  CA  ASN     4      -6.261 -22.277   2.119  1.00  0.00     0.196 C 
BRANCH   5   6
ATOM      6  N   ASN     4      -5.807 -23.662   1.873  1.00  0.00    -0.228 NA
ATOM      7  C   LEU     3      -4.548 -24.057   2.043  1.00  0.00     0.274 C 
ATOM      8  O   LEU     3      -3.625 -23.333   2.427  1.00  0.00    -0.268 OA
BRANCH   7   9
ATOM      9  CA  LEU     3      -4.299 -25.543   1.785  1.00  0.00     0.186 C 
BRANCH   9  10
ATOM     10  N   LEU     3      -5.464 -26.126   1.082  1.00  0.00    -0.229 NA
ATOM     11  C   GLY     2      -6.145 -27.174   1.553  1.00  0.00     0.277 C 
ATOM     12  O   GLY     2      -5.968 -27.642   2.669  1.00  0.00    -0.268 OA
BRANCH  11  13
ATOM     13  CA  GLY     2      -7.309 -27.676   0.673  1.00  0.00     0.218 C 
BRANCH  13  14
ATOM     14  N   GLY     2      -8.212 -28.711   1.232  1.00  0.00    -0.226 NA
ATOM     15  C   GLU     1      -9.363 -28.395   1.838  1.00  0.00     0.289 C 
ATOM     16  O   GLU     1      -9.798 -27.256   1.809  1.00  0.00    -0.268 OA
BRANCH  15  17
ATOM     17  CA  GLU     1     -10.187 -29.526   2.509  1.00  0.00     0.381 C 
ATOM     18  N   GLU     1     -10.749 -29.152   3.818  1.00  0.00     0.626 N 
BRANCH  17  19
ATOM     19  CB  GLU     1     -11.293 -29.974   1.532  1.00  0.00     0.060 C 
BRANCH  19  20
ATOM     20  CG  GLU     1     -12.764 -29.698   1.881  1.00  0.00     0.100 C 
BRANCH  20  21
ATOM     21  CD  GLU     1     -13.274 -28.369   1.304  1.00  0.00     0.185 C 
ATOM     22  OE1 GLU     1     -13.349 -28.251   0.068  1.00  0.00    -0.647 OA
ATOM     23  OE2 GLU     1     -13.561 -27.452   2.094  1.00  0.00    -0.647 OA
ENDBRANCH  20  21
ENDBRANCH  19  20
ENDBRANCH  17  19
ENDBRANCH  15  17
ENDBRANCH  13  14
ENDBRANCH  11  13
ENDBRANCH   9  10
BRANCH   9  24
ATOM     24  CB  LEU     3      -3.030 -25.690   0.937  1.00  0.00     0.034 C 
BRANCH  24  25
ATOM     25  CG  LEU     3      -1.899 -26.462   1.640  1.00  0.00     0.002 C 
ATOM     26  CD1 LEU     3      -0.767 -25.498   1.989  1.00  0.00     0.000 C 
ATOM     27  CD2 LEU     3      -2.406 -27.157   2.907  1.00  0.00     0.000 C 
ENDBRANCH  24  25
ENDBRANCH   9  24
ENDBRANCH   7   9
ENDBRANCH   5   6
BRANCH   5  28
ATOM     28  CB  ASN     4      -7.393 -21.907   1.145  1.00  0.00     0.126 C 
BRANCH  28  29
ATOM     29  CG  ASN     4      -8.270 -23.105   0.731  1.00  0.00     0.276 C 
ATOM     30  ND2 ASN     4      -9.325 -23.333   1.467  1.00  0.00    -0.107 N 
ATOM     31  OD1 ASN     4      -8.066 -23.785  -0.256  1.00  0.00    -0.269 OA
ENDBRANCH  28  29
ENDBRANCH   5  28
ENDBRANCH   3   5
ENDBRANCH   1   2
BRANCH   1  32
ATOM     32  CB  ARG     5      -4.957 -20.363   6.261  1.00  0.00     0.036 C 
BRANCH  32  33
ATOM     33  CG  ARG     5      -3.753 -20.459   5.323  1.00  0.00     0.029 C 
BRANCH  33  34
ATOM     34  CD  ARG     5      -2.571 -21.061   6.076  1.00  0.00     0.145 C 
BRANCH  34  35
ATOM     35  NE  ARG     5      -2.554 -22.541   5.988  1.00  0.00    -0.083 NA
ATOM     36  CZ  ARG     5      -1.669 -23.255   5.276  1.00  0.00     0.782 C 
ATOM     37  NH2 ARG     5      -1.560 -24.584   5.437  1.00  0.00     0.063 N 
ATOM     38  NH1 ARG     5      -0.786 -22.666   4.483  1.00  0.00     0.063 N 
ENDBRANCH  34  35
ENDBRANCH  33  34
ENDBRANCH  32  33
ENDBRANCH   1  32
BRANCH   1  39
ATOM     39  C   ARG     5      -7.180 -19.399   5.603  1.00  0.00     0.256 C 
ATOM     40  O   ARG     5      -6.714 -18.319   5.227  1.00  0.00    -0.270 OA
ATOM     41  N   PRO     6      -8.464 -19.556   5.940  1.00  0.00    -0.312 N 
ATOM     42  CA  PRO     6      -9.438 -18.447   6.044  1.00  0.00     0.165 C 
ATOM     43  CD  PRO     6      -9.155 -20.854   6.103  1.00  0.00     0.105 C 
ATOM     44  CB  PRO     6     -10.724 -19.101   6.550  1.00  0.00     0.034 C 
ATOM     45  CG  PRO     6     -10.639 -20.509   5.977  1.00  0.00     0.027 C 
BRANCH  42  46
ATOM     46  C   PRO     6      -8.952 -17.364   7.022  1.00  0.00     0.272 C 
ATOM     47  N   SER     7      -8.815 -16.116   6.595  1.00  0.00    -0.226 NA
ATOM     48  O   PRO     6      -8.592 -17.676   8.161  1.00  0.00    -0.269 OA
BRANCH  47  49
ATOM     49  CA  SER     7      -9.076 -15.613   5.224  1.00  0.00     0.219 C 
BRANCH  49  50
ATOM     50  C   SER     7      -7.902 -14.776   4.685  1.00  0.00     0.277 C 
ATOM     51  O   SER     7      -7.418 -15.054   3.593  1.00  0.00    -0.268 OA
ATOM     52  N   GLY     8      -7.645 -13.652   5.341  1.00  0.00    -0.226 NA
BRANCH  52  53
ATOM     53  CA  GLY     8      -6.423 -12.848   5.077  1.00  0.00     0.218 C 
BRANCH  53  54
ATOM     54  C   GLY     8      -6.014 -11.786   6.113  1.00  0.00     0.277 C 
ATOM     55  N   GLY     9      -6.179 -10.500   5.770  1.00  0.00    -0.226 NA
ATOM     56  O   GLY     8      -5.601 -12.127   7.209  1.00  0.00    -0.268 OA
BRANCH  55  57
ATOM     57  CA  GLY     9      -5.794  -9.376   6.647  1.00  0.00     0.218 C 
BRANCH  57  58
ATOM     58  C   GLY     9      -7.026  -8.762   7.353  1.00  0.00     0.277 C 
ATOM     59  O   GLY     9      -7.444  -9.273   8.384  1.00  0.00    -0.268 OA
ATOM     60  N   CYS    10      -7.746  -7.801   6.792  1.00  0.00    -0.228 NA
BRANCH  60  61
ATOM     61  CA  CYS    10      -7.562  -7.187   5.454  1.00  0.00     0.198 C 
BRANCH  61  62
ATOM     62  CB  CYS    10      -8.321  -7.940   4.356  1.00  0.00     0.103 C 
ATOM     63  SG  CYS    10     -10.139  -7.781   4.309  1.00  0.00    -0.080 SA
ENDBRANCH  61  62
BRANCH  61  64
ATOM     64  C   CYS    10      -8.072  -5.748   5.352  1.00  0.00     0.275 C 
ATOM     65  O   CYS    10      -8.553  -5.208   6.347  1.00  0.00    -0.268 OA
ATOM     66  N   GLY    11      -7.658  -5.109   4.270  1.00  0.00    -0.225 NA
BRANCH  66  67
ATOM     67  CA  GLY    11      -8.493  -4.097   3.607  1.00  0.00     0.226 C 
BRANCH  67  68
ATOM     68  C   GLY    11      -7.559  -2.896   3.394  1.00  0.00     0.211 C 
ATOM     69  O2  GLY    11      -6.342  -3.122   3.568  1.00  0.00    -0.646 OA
ATOM     70  O1  GLY    11      -8.025  -1.945   2.725  1.00  0.00    -0.646 OA
ENDBRANCH  67  68
ENDBRANCH  66  67
ENDBRANCH  61  64
ENDBRANCH  60  61
ENDBRANCH  57  58
ENDBRANCH  55  57
ENDBRANCH  53  54
ENDBRANCH  52  53
ENDBRANCH  49  50
BRANCH  49  71
ATOM     71  CB  SER     7     -10.325 -14.731   5.173  1.00  0.00     0.216 C 
ATOM     72  OG  SER     7     -11.445 -15.443   5.702  1.00  0.00    -0.218 OA
ENDBRANCH  49  71
ENDBRANCH  47  49
ENDBRANCH  42  46
ENDBRANCH   1  39
TORSDOF 33
ENDMDL
MODEL 9
REMARK VINA RESULT:      -5.1     22.810     28.804
REMARK WARNING: 32 MAX_TORS EXCEEDED!!!
REMARK  33 active torsions:
REMARK  status: ('A' for Active; 'I' for Inactive)
REMARK    1  A    between atoms: CA_2  and  C_8 
REMARK    2  A    between atoms: CA_2  and  CB_3 
REMARK    3  A    between atoms: CB_3  and  CG_4 
REMARK    4  A    between atoms: CG_4  and  CD_5 
REMARK       I    between atoms: C_8  and  N_10 
REMARK    5  A    between atoms: N_10  and  CA_11 
REMARK    6  A    between atoms: CA_11  and  C_12 
REMARK       I    between atoms: C_12  and  N_14 
REMARK    7  A    between atoms: N_14  and  CA_15 
REMARK    8  A    between atoms: CA_15  and  C_20 
REMARK    9  A    between atoms: CA_15  and  CB_16 
REMARK   10  A    between atoms: CB_16  and  CG_17 
REMARK       I    between atoms: C_20  and  N_22 
REMARK   11  A    between atoms: N_22  and  CA_23 
REMARK   12  A    between atoms: CA_23  and  CB_24 
REMARK   13  A    between atoms: CA_23  and  C_28 
REMARK   14  A    between atoms: CB_24  and  CG_25 
REMARK       I    between atoms: C_28  and  N_30 
REMARK   15  A    between atoms: N_30  and  CA_31 
REMARK   16  A    between atoms: CA_31  and  CB_32 
REMARK   17  A    between atoms: CA_31  and  C_39 
REMARK   18  A    between atoms: CB_32  and  CG_33 
REMARK   19  A    between atoms: CG_33  and  CD_34 
REMARK   20  A    between atoms: CD_34  and  NE_35 
REMARK       I    between atoms: C_39  and  N_41 
REMARK   21  A    between atoms: CA_42  and  C_46 
REMARK       I    between atoms: C_46  and  N_48 
REMARK   22  A    between atoms: N_48  and  CA_49 
REMARK   23  A    between atoms: CA_49  and  C_52 
REMARK   24  A    between atoms: CA_49  and  CB_50 
REMARK       I    between atoms: C_52  and  N_54 
REMARK   25  A    between atoms: N_54  and  CA_55 
REMARK   26  A    between atoms: CA_55  and  C_56 
REMARK       I    between atoms: C_56  and  N_58 
REMARK   27  A    between atoms: N_58  and  CA_59 
REMARK   28  A    between atoms: CA_59  and  C_60 
REMARK       I    between atoms: C_60  and  N_62 
REMARK   29  A    between atoms: N_62  and  CA_63 
REMARK   30  A    between atoms: CA_63  and  CB_64 
REMARK   31  A    between atoms: CA_63  and  C_66 
REMARK       I    between atoms: C_66  and  N_68 
REMARK   32  A    between atoms: N_68  and  CA_69 
REMARK   33  A    between atoms: CA_69  and  C_70 
ROOT
ATOM      1  CA  ARG     5      15.172  -1.882   1.726  1.00  0.00     0.185 C 
ENDROOT
BRANCH   1   2
ATOM      2  N   ARG     5      15.287  -0.534   1.140  1.00  0.00    -0.229 NA
ATOM      3  C   ASN     4      14.429   0.459   1.314  1.00  0.00     0.275 C 
ATOM      4  O   ASN     4      13.300   0.322   1.775  1.00  0.00    -0.268 OA
BRANCH   3   5
ATOM      5  CA  ASN     4      14.849   1.746   0.573  1.00  0.00     0.196 C 
BRANCH   5   6
ATOM      6  N   ASN     4      14.837   2.904   1.492  1.00  0.00    -0.228 NA
ATOM      7  C   LEU     3      14.307   4.082   1.172  1.00  0.00     0.274 C 
ATOM      8  O   LEU     3      13.765   4.345   0.094  1.00  0.00    -0.268 OA
BRANCH   7   9
ATOM      9  CA  LEU     3      14.350   5.131   2.283  1.00  0.00     0.186 C 
BRANCH   9  10
ATOM     10  N   LEU     3      14.019   4.495   3.577  1.00  0.00    -0.229 NA
ATOM     11  C   GLY     2      13.880   5.188   4.711  1.00  0.00     0.277 C 
ATOM     12  O   GLY     2      13.860   6.409   4.751  1.00  0.00    -0.268 OA
BRANCH  11  13
ATOM     13  CA  GLY     2      13.570   4.360   5.976  1.00  0.00     0.218 C 
BRANCH  13  14
ATOM     14  N   GLY     2      12.155   4.021   6.260  1.00  0.00    -0.226 NA
ATOM     15  C   GLU     1      11.433   4.689   7.167  1.00  0.00     0.289 C 
ATOM     16  O   GLU     1      11.855   5.712   7.679  1.00  0.00    -0.268 OA
BRANCH  15  17
ATOM     17  CA  GLU     1      10.001   4.189   7.496  1.00  0.00     0.381 C 
ATOM     18  N   GLU     1       8.981   5.252   7.464  1.00  0.00     0.626 N 
BRANCH  17  19
ATOM     19  CB  GLU     1       9.646   3.043   6.527  1.00  0.00     0.060 C 
BRANCH  19  20
ATOM     20  CG  GLU     1       8.492   2.090   6.876  1.00  0.00     0.100 C 
BRANCH  20  21
ATOM     21  CD  GLU     1       8.294   0.986   5.826  1.00  0.00     0.185 C 
ATOM     22  OE1 GLU     1       9.300   0.404   5.383  1.00  0.00    -0.647 OA
ATOM     23  OE2 GLU     1       7.139   0.739   5.438  1.00  0.00    -0.647 OA
ENDBRANCH  20  21
ENDBRANCH  19  20
ENDBRANCH  17  19
ENDBRANCH  15  17
ENDBRANCH  13  14
ENDBRANCH  11  13
ENDBRANCH   9  10
BRANCH   9  24
ATOM     24  CB  LEU     3      15.755   5.743   2.329  1.00  0.00     0.034 C 
BRANCH  24  25
ATOM     25  CG  LEU     3      15.812   7.205   1.850  1.00  0.00     0.002 C 
ATOM     26  CD1 LEU     3      14.393   7.752   1.716  1.00  0.00     0.000 C 
ATOM     27  CD2 LEU     3      16.620   8.075   2.820  1.00  0.00     0.000 C 
ENDBRANCH  24  25
ENDBRANCH   9  24
ENDBRANCH   7   9
ENDBRANCH   5   6
BRANCH   5  28
ATOM     28  CB  ASN     4      16.236   1.596  -0.075  1.00  0.00     0.126 C 
BRANCH  28  29
ATOM     29  CG  ASN     4      17.379   2.200   0.763  1.00  0.00     0.276 C 
ATOM     30  ND2 ASN     4      17.806   3.379   0.396  1.00  0.00    -0.107 N 
ATOM     31  OD1 ASN     4      17.843   1.675   1.757  1.00  0.00    -0.269 OA
ENDBRANCH  28  29
ENDBRANCH   5  28
ENDBRANCH   3   5
ENDBRANCH   1   2
BRANCH   1  32
ATOM     32  CB  ARG     5      15.525  -2.952   0.686  1.00  0.00     0.036 C 
BRANCH  32  33
ATOM     33  CG  ARG     5      15.901  -4.304   1.293  1.00  0.00     0.029 C 
BRANCH  33  34
ATOM     34  CD  ARG     5      14.796  -5.315   1.004  1.00  0.00     0.145 C 
BRANCH  34  35
ATOM     35  NE  ARG     5      13.544  -4.992   1.732  1.00  0.00    -0.083 NA
ATOM     36  CZ  ARG     5      13.265  -5.383   2.984  1.00  0.00     0.782 C 
ATOM     37  NH2 ARG     5      12.233  -4.853   3.662  1.00  0.00     0.063 N 
ATOM     38  NH1 ARG     5      14.064  -6.209   3.644  1.00  0.00     0.063 N 
ENDBRANCH  34  35
ENDBRANCH  33  34
ENDBRANCH  32  33
ENDBRANCH   1  32
BRANCH   1  39
ATOM     39  C   ARG     5      16.121  -2.002   2.932  1.00  0.00     0.256 C 
ATOM     40  O   ARG     5      17.341  -1.914   2.763  1.00  0.00    -0.270 OA
ATOM     41  N   PRO     6      15.562  -2.098   4.142  1.00  0.00    -0.312 N 
ATOM     42  CA  PRO     6      16.325  -2.254   5.401  1.00  0.00     0.165 C 
ATOM     43  CD  PRO     6      14.126  -1.904   4.442  1.00  0.00     0.105 C 
ATOM     44  CB  PRO     6      15.261  -2.420   6.487  1.00  0.00     0.034 C 
ATOM     45  CG  PRO     6      14.090  -1.613   5.943  1.00  0.00     0.027 C 
BRANCH  42  46
ATOM     46  C   PRO     6      17.250  -3.481   5.347  1.00  0.00     0.272 C 
ATOM     47  N   SER     7      18.554  -3.322   5.527  1.00  0.00    -0.226 NA
ATOM     48  O   PRO     6      16.795  -4.585   5.034  1.00  0.00    -0.269 OA
BRANCH  47  49
ATOM     49  CA  SER     7      19.266  -2.045   5.777  1.00  0.00     0.219 C 
BRANCH  49  50
ATOM     50  C   SER     7      20.351  -1.775   4.719  1.00  0.00     0.277 C 
ATOM     51  O   SER     7      21.232  -2.608   4.536  1.00  0.00    -0.268 OA
ATOM     52  N   GLY     8      20.122  -0.753   3.906  1.00  0.00    -0.226 NA
BRANCH  52  53
ATOM     53  CA  GLY     8      21.162  -0.237   2.978  1.00  0.00     0.218 C 
BRANCH  53  54
ATOM     54  C   GLY     8      21.551   1.249   3.076  1.00  0.00     0.277 C 
ATOM     55  N   GLY     9      20.850   2.010   3.930  1.00  0.00    -0.226 NA
ATOM     56  O   GLY     8      22.489   1.682   2.427  1.00  0.00    -0.268 OA
BRANCH  55  57
ATOM     57  CA  GLY     9      21.087   3.458   4.099  1.00  0.00     0.218 C 
BRANCH  57  58
ATOM     58  C   GLY     9      20.078   4.296   3.278  1.00  0.00     0.277 C 
ATOM     59  O   GLY     9      20.415   4.741   2.188  1.00  0.00    -0.268 OA
ATOM     60  N   CYS    10      18.919   4.690   3.786  1.00  0.00    -0.228 NA
BRANCH  60  61
ATOM     61  CA  CYS    10      18.401   4.463   5.157  1.00  0.00     0.198 C 
BRANCH  61  62
ATOM     62  CB  CYS    10      17.472   5.589   5.625  1.00  0.00     0.103 C 
ATOM     63  SG  CYS    10      16.914   5.572   7.363  1.00  0.00    -0.080 SA
ENDBRANCH  61  62
BRANCH  61  64
ATOM     64  C   CYS    10      17.563   3.191   5.306  1.00  0.00     0.275 C 
ATOM     65  O   CYS    10      16.657   2.971   4.504  1.00  0.00    -0.268 OA
ATOM     66  N   GLY    11      18.102   2.286   6.106  1.00  0.00    -0.225 NA
BRANCH  66  67
ATOM     67  CA  GLY    11      17.271   1.396   6.930  1.00  0.00     0.226 C 
BRANCH  67  68
ATOM     68  C   GLY    11      17.483   1.885   8.372  1.00  0.00     0.211 C 
ATOM     69  O2  GLY    11      18.663   2.157   8.681  1.00  0.00    -0.646 OA
ATOM     70  O1  GLY    11      16.468   2.316   8.964  1.00  0.00    -0.646 OA
ENDBRANCH  67  68
ENDBRANCH  66  67
ENDBRANCH  61  64
ENDBRANCH  60  61
ENDBRANCH  57  58
ENDBRANCH  55  57
ENDBRANCH  53  54
ENDBRANCH  52  53
ENDBRANCH  49  50
BRANCH  49  71
ATOM     71  CB  SER     7      19.952  -2.038   7.145  1.00  0.00     0.216 C 
ATOM     72  OG  SER     7      19.169  -1.292   8.078  1.00  0.00    -0.218 OA
ENDBRANCH  49  71
ENDBRANCH  47  49
ENDBRANCH  42  46
ENDBRANCH   1  39
TORSDOF 33
ENDMDL
