MODEL 1
REMARK VINA RESULT:      -2.7      0.000      0.000
REMARK WARNING: 32 MAX_TORS EXCEEDED!!!
REMARK  42 active torsions:
REMARK  status: ('A' for Active; 'I' for Inactive)
REMARK    1  A    between atoms: CA_2  and  CB_3 
REMARK    2  A    between atoms: CA_2  and  C_11 
REMARK    3  A    between atoms: CB_3  and  CG_4 
REMARK       I    between atoms: C_11  and  N_13 
REMARK    4  A    between atoms: N_13  and  CA_14 
REMARK    5  A    between atoms: CA_14  and  CB_15 
REMARK    6  A    between atoms: CA_14  and  C_19 
REMARK    7  A    between atoms: CB_15  and  CG_16 
REMARK       I    between atoms: C_19  and  N_21 
REMARK    8  A    between atoms: CA_22  and  C_26 
REMARK       I    between atoms: C_26  and  N_28 
REMARK    9  A    between atoms: N_28  and  CA_29 
REMARK   10  A    between atoms: CA_29  and  C_35 
REMARK   11  A    between atoms: CA_29  and  CB_30 
REMARK   12  A    between atoms: CB_30  and  CG_31 
REMARK   13  A    between atoms: CG_31  and  CD_32 
REMARK       I    between atoms: C_35  and  N_37 
REMARK   14  A    between atoms: N_37  and  CA_38 
REMARK   15  A    between atoms: CA_38  and  CB_39 
REMARK   16  A    between atoms: CA_38  and  C_47 
REMARK   17  A    between atoms: CB_39  and  CG_40 
REMARK       I    between atoms: C_47  and  N_49 
REMARK   18  A    between atoms: N_49  and  CA_50 
REMARK   19  A    between atoms: CA_50  and  CB_51 
REMARK   20  A    between atoms: CA_50  and  C_58 
REMARK   21  A    between atoms: CB_51  and  CG_52 
REMARK   22  A    between atoms: CG_52  and  CD_53 
REMARK   23  A    between atoms: CD_53  and  NE_54 
REMARK       I    between atoms: C_58  and  N_60 
REMARK   24  A    between atoms: N_60  and  CA_61 
REMARK   25  A    between atoms: CA_61  and  C_66 
REMARK   26  A    between atoms: CA_61  and  CB_62 
REMARK   27  A    between atoms: CB_62  and  CG_63 
REMARK       I    between atoms: C_66  and  N_68 
REMARK   28  A    between atoms: N_68  and  CA_69 
REMARK   29  A    between atoms: CA_69  and  CB_70 
REMARK   30  A    between atoms: CA_69  and  C_77 
REMARK   31  A    between atoms: CB_70  and  CG_71 
REMARK       I    between atoms: C_77  and  N_79 
REMARK   32  A    between atoms: N_79  and  CA_80 
REMARK   33  A    between atoms: CA_80  and  CB_81 
REMARK   34  A    between atoms: CA_80  and  C_91 
REMARK   35  A    between atoms: CB_81  and  CG_82 
REMARK       I    between atoms: C_91  and  N_93 
REMARK   36  A    between atoms: N_93  and  CA_94 
REMARK   37  A    between atoms: CA_94  and  C_95 
REMARK       I    between atoms: C_95  and  N_97 
REMARK   38  A    between atoms: N_97  and  CA_98 
REMARK   39  A    between atoms: CA_98  and  C_101 
REMARK   40  A    between atoms: CA_98  and  CB_99 
REMARK       I    between atoms: C_101  and  N_103 
REMARK   41  A    between atoms: N_103  and  CA_104 
REMARK   42  A    between atoms: CA_104  and  C_105 
ROOT
ATOM      1  CA  ARG     6      11.919 -19.703   8.471  1.00  0.00     0.186 C 
ENDROOT
BRANCH   1   2
ATOM      2  N   ARG     6      10.732 -19.596   9.351  1.00  0.00    -0.229 NA
ATOM      3  C   TYR     5       9.673 -20.408   9.232  1.00  0.00     0.275 C 
ATOM      4  O   TYR     5       9.630 -21.315   8.400  1.00  0.00    -0.268 OA
BRANCH   3   5
ATOM      5  CA  TYR     5       8.540 -20.238  10.257  1.00  0.00     0.191 C 
BRANCH   5   6
ATOM      6  N   TYR     5       7.184 -20.259   9.650  1.00  0.00    -0.228 NA
ATOM      7  C   GLU     4       6.657 -19.212   8.994  1.00  0.00     0.274 C 
ATOM      8  O   GLU     4       7.305 -18.209   8.721  1.00  0.00    -0.268 OA
BRANCH   7   9
ATOM      9  CA  GLU     4       5.298 -19.458   8.308  1.00  0.00     0.187 C 
BRANCH   9  10
ATOM     10  CB  GLU     4       4.813 -18.165   7.633  1.00  0.00     0.045 C 
BRANCH  10  11
ATOM     11  CG  GLU     4       3.417 -17.655   8.055  1.00  0.00     0.100 C 
BRANCH  11  12
ATOM     12  CD  GLU     4       3.320 -16.137   8.201  1.00  0.00     0.185 C 
ATOM     13  OE1 GLU     4       4.356 -15.524   8.570  1.00  0.00    -0.647 OA
ATOM     14  OE2 GLU     4       2.185 -15.665   8.413  1.00  0.00    -0.647 OA
ENDBRANCH  11  12
ENDBRANCH  10  11
ENDBRANCH   9  10
BRANCH   9  15
ATOM     15  N   GLU     4       4.252 -19.923   9.240  1.00  0.00    -0.229 NA
ATOM     16  C   PRO     3       4.078 -19.587  10.512  1.00  0.00     0.272 C 
ATOM     17  O   PRO     3       4.537 -18.557  11.008  1.00  0.00    -0.269 OA
BRANCH  16  18
ATOM     18  CA  PRO     3       2.889 -20.253  11.208  1.00  0.00     0.165 C 
ATOM     19  N   PRO     3       1.567 -19.917  10.637  1.00  0.00    -0.312 N 
ATOM     20  CD  PRO     3       0.714 -21.132  10.605  1.00  0.00     0.105 C 
ATOM     21  C   ASP     2       1.171 -18.664  10.347  1.00  0.00     0.257 C 
ATOM     22  CG  PRO     3       1.516 -22.180  11.392  1.00  0.00     0.027 C 
ATOM     23  CB  PRO     3       2.969 -21.777  11.157  1.00  0.00     0.034 C 
ATOM     24  O   ASP     2       1.827 -17.691  10.748  1.00  0.00    -0.270 OA
BRANCH  21  25
ATOM     25  CA  ASP     2      -0.267 -18.421   9.834  1.00  0.00     0.195 C 
BRANCH  25  26
ATOM     26  CB  ASP     2      -0.443 -18.325   8.296  1.00  0.00     0.132 C 
BRANCH  26  27
ATOM     27  CG  ASP     2      -1.575 -19.257   7.825  1.00  0.00     0.188 C 
ATOM     28  OD2 ASP     2      -2.737 -18.904   8.149  1.00  0.00    -0.647 OA
ATOM     29  OD1 ASP     2      -1.290 -20.475   7.705  1.00  0.00    -0.647 OA
ENDBRANCH  26  27
ENDBRANCH  25  26
BRANCH  25  30
ATOM     30  N   ASP     2      -0.810 -17.133  10.297  1.00  0.00    -0.228 NA
ATOM     31  C   TYR     1      -1.999 -16.923  10.813  1.00  0.00     0.289 C 
ATOM     32  O   TYR     1      -2.845 -17.761  11.140  1.00  0.00    -0.268 OA
BRANCH  31  33
ATOM     33  CA  TYR     1      -2.296 -15.435  10.974  1.00  0.00     0.385 C 
ATOM     34  N   TYR     1      -1.015 -14.739  11.177  1.00  0.00     0.626 N 
BRANCH  33  35
ATOM     35  CB  TYR     1      -3.017 -14.975   9.709  1.00  0.00     0.075 C 
BRANCH  35  36
ATOM     36  CG  TYR     1      -3.666 -13.591   9.857  1.00  0.00    -0.019 A 
ATOM     37  CD2 TYR     1      -4.113 -12.880   8.754  1.00  0.00    -0.002 A 
ATOM     38  CE2 TYR     1      -4.816 -11.697   8.924  1.00  0.00     0.027 A 
ATOM     39  CZ  TYR     1      -5.060 -11.231  10.215  1.00  0.00     0.131 A 
ATOM     40  CE1 TYR     1      -4.575 -11.923  11.310  1.00  0.00     0.027 A 
ATOM     41  OH  TYR     1      -5.896 -10.192  10.414  1.00  0.00    -0.190 OA
ATOM     42  CD1 TYR     1      -3.872 -13.106  11.140  1.00  0.00    -0.002 A 
ENDBRANCH  35  36
ENDBRANCH  33  35
ENDBRANCH  31  33
ENDBRANCH  25  30
ENDBRANCH  21  25
ENDBRANCH  16  18
ENDBRANCH   9  15
ENDBRANCH   7   9
ENDBRANCH   5   6
BRANCH   5  43
ATOM     43  CB  TYR     5       8.639 -21.299  11.366  1.00  0.00     0.060 C 
BRANCH  43  44
ATOM     44  CG  TYR     5       7.931 -22.609  10.984  1.00  0.00    -0.020 A 
ATOM     45  CD2 TYR     5       8.631 -23.638  10.368  1.00  0.00    -0.002 A 
ATOM     46  CE2 TYR     5       7.983 -24.823  10.033  1.00  0.00     0.027 A 
ATOM     47  CZ  TYR     5       6.634 -24.979  10.315  1.00  0.00     0.131 A 
ATOM     48  CE1 TYR     5       5.930 -23.961  10.948  1.00  0.00     0.027 A 
ATOM     49  OH  TYR     5       5.967 -26.066   9.869  1.00  0.00    -0.190 OA
ATOM     50  CD1 TYR     5       6.580 -22.771  11.274  1.00  0.00    -0.002 A 
ENDBRANCH  43  44
ENDBRANCH   5  43
ENDBRANCH   3   5
ENDBRANCH   1   2
BRANCH   1  51
ATOM     51  CB  ARG     6      12.368 -18.356   7.913  1.00  0.00     0.036 C 
BRANCH  51  52
ATOM     52  CG  ARG     6      11.212 -17.465   7.454  1.00  0.00     0.029 C 
BRANCH  52  53
ATOM     53  CD  ARG     6      11.182 -16.173   8.266  1.00  0.00     0.145 C 
BRANCH  53  54
ATOM     54  NE  ARG     6       9.876 -15.505   8.147  1.00  0.00    -0.083 NA
ATOM     55  CZ  ARG     6       9.010 -15.295   9.158  1.00  0.00     0.782 C 
ATOM     56  NH2 ARG     6       7.814 -14.753   8.924  1.00  0.00     0.063 N 
ATOM     57  NH1 ARG     6       9.303 -15.705  10.387  1.00  0.00     0.063 N 
ENDBRANCH  53  54
ENDBRANCH  52  53
ENDBRANCH  51  52
ENDBRANCH   1  51
BRANCH   1  58
ATOM     58  C   ARG     6      13.131 -20.306   9.192  1.00  0.00     0.274 C 
ATOM     59  N   ASN     7      13.690 -21.358   8.600  1.00  0.00    -0.228 NA
ATOM     60  O   ARG     6      13.512 -19.805  10.251  1.00  0.00    -0.268 OA
BRANCH  59  61
ATOM     61  CA  ASN     7      14.922 -22.010   9.091  1.00  0.00     0.196 C 
BRANCH  61  62
ATOM     62  C   ASN     7      14.628 -22.963  10.266  1.00  0.00     0.275 C 
ATOM     63  N   PHE     8      14.784 -24.276  10.038  1.00  0.00    -0.228 NA
ATOM     64  O   ASN     7      14.659 -22.488  11.385  1.00  0.00    -0.268 OA
BRANCH  63  65
ATOM     65  CA  PHE     8      14.634 -25.339  11.061  1.00  0.00     0.191 C 
BRANCH  65  66
ATOM     66  CB  PHE     8      13.147 -25.708  11.156  1.00  0.00     0.060 C 
BRANCH  66  67
ATOM     67  CG  PHE     8      12.568 -26.349   9.880  1.00  0.00    -0.020 A 
ATOM     68  CD1 PHE     8      12.363 -27.721   9.826  1.00  0.00    -0.004 A 
ATOM     69  CE1 PHE     8      11.935 -28.312   8.638  1.00  0.00    -0.000 A 
ATOM     70  CZ  PHE     8      11.704 -27.525   7.522  1.00  0.00    -0.000 A 
ATOM     71  CE2 PHE     8      11.896 -26.148   7.577  1.00  0.00    -0.000 A 
ATOM     72  CD2 PHE     8      12.324 -25.557   8.766  1.00  0.00    -0.004 A 
ENDBRANCH  66  67
ENDBRANCH  65  66
BRANCH  65  73
ATOM     73  C   PHE     8      15.520 -26.586  10.842  1.00  0.00     0.275 C 
ATOM     74  N   TRP     9      16.402 -26.519   9.844  1.00  0.00    -0.228 NA
ATOM     75  O   PHE     8      15.249 -27.659  11.386  1.00  0.00    -0.268 OA
BRANCH  74  76
ATOM     76  CA  TRP     9      17.398 -27.592   9.599  1.00  0.00     0.191 C 
BRANCH  76  77
ATOM     77  CB  TRP     9      18.180 -27.848  10.898  1.00  0.00     0.062 C 
BRANCH  77  78
ATOM     78  CG  TRP     9      19.632 -27.378  10.829  1.00  0.00     0.001 A 
ATOM     79  CD1 TRP     9      20.050 -26.196  10.384  1.00  0.00     0.095 A 
ATOM     80  NE1 TRP     9      21.362 -26.230  10.186  1.00  0.00    -0.244 NA
ATOM     81  CE2 TRP     9      21.829 -27.425  10.516  1.00  0.00     0.081 A 
ATOM     82  CD2 TRP     9      20.752 -28.198  10.921  1.00  0.00     0.015 A 
ATOM     83  CZ2 TRP     9      23.092 -28.008  10.419  1.00  0.00     0.019 A 
ATOM     84  CE3 TRP     9      20.914 -29.544  11.214  1.00  0.00     0.001 A 
ATOM     85  CZ3 TRP     9      22.170 -30.130  11.105  1.00  0.00     0.000 A 
ATOM     86  CH2 TRP     9      23.261 -29.350  10.724  1.00  0.00     0.002 A 
ENDBRANCH  77  78
ENDBRANCH  76  77
BRANCH  76  87
ATOM     87  C   TRP     9      16.804 -28.898   9.024  1.00  0.00     0.275 C 
ATOM     88  O   TRP     9      15.742 -28.890   8.409  1.00  0.00    -0.268 OA
ATOM     89  N   GLY    10      17.556 -29.990   9.149  1.00  0.00    -0.226 NA
BRANCH  89  90
ATOM     90  CA  GLY    10      17.180 -31.331   8.623  1.00  0.00     0.218 C 
BRANCH  90  91
ATOM     91  C   GLY    10      18.025 -32.518   9.115  1.00  0.00     0.277 C 
ATOM     92  N   CYS    11      17.384 -33.685   9.161  1.00  0.00    -0.228 NA
ATOM     93  O   GLY    10      19.142 -32.336   9.585  1.00  0.00    -0.268 OA
BRANCH  92  94
ATOM     94  CA  CYS    11      17.953 -34.989   9.570  1.00  0.00     0.198 C 
BRANCH  94  95
ATOM     95  C   CYS    11      16.810 -35.854  10.134  1.00  0.00     0.275 C 
ATOM     96  O   CYS    11      17.079 -36.927  10.662  1.00  0.00    -0.268 OA
ATOM     97  N   GLY    12      15.580 -35.465   9.829  1.00  0.00    -0.225 NA
BRANCH  97  98
ATOM     98  CA  GLY    12      14.377 -36.186  10.273  1.00  0.00     0.226 C 
BRANCH  98  99
ATOM     99  C   GLY    12      13.233 -35.859   9.286  1.00  0.00     0.211 C 
ATOM    100  O1  GLY    12      12.471 -34.910   9.601  1.00  0.00    -0.646 OA
ATOM    101  O2  GLY    12      13.163 -36.526   8.237  1.00  0.00    -0.646 OA
ENDBRANCH  98  99
ENDBRANCH  97  98
ENDBRANCH  94  95
BRANCH  94 102
ATOM    102  CB  CYS    11      18.932 -34.795  10.726  1.00  0.00     0.103 C 
ATOM    103  SG  CYS    11      20.634 -35.422  10.457  1.00  0.00    -0.080 SA
ENDBRANCH  94 102
ENDBRANCH  92  94
ENDBRANCH  90  91
ENDBRANCH  89  90
ENDBRANCH  76  87
ENDBRANCH  74  76
ENDBRANCH  65  73
ENDBRANCH  63  65
ENDBRANCH  61  62
BRANCH  61 104
ATOM    104  CB  ASN     7      15.983 -20.974   9.481  1.00  0.00     0.126 C 
BRANCH 104 105
ATOM    105  CG  ASN     7      16.582 -20.185   8.301  1.00  0.00     0.276 C 
ATOM    106  ND2 ASN     7      17.607 -20.742   7.698  1.00  0.00    -0.107 N 
ATOM    107  OD1 ASN     7      16.280 -19.039   7.997  1.00  0.00    -0.269 OA
ENDBRANCH 104 105
ENDBRANCH  61 104
ENDBRANCH  59  61
ENDBRANCH   1  58
TORSDOF 42
ENDMDL
MODEL 2
REMARK VINA RESULT:      -2.6      7.121     21.630
REMARK WARNING: 32 MAX_TORS EXCEEDED!!!
REMARK  42 active torsions:
REMARK  status: ('A' for Active; 'I' for Inactive)
REMARK    1  A    between atoms: CA_2  and  CB_3 
REMARK    2  A    between atoms: CA_2  and  C_11 
REMARK    3  A    between atoms: CB_3  and  CG_4 
REMARK       I    between atoms: C_11  and  N_13 
REMARK    4  A    between atoms: N_13  and  CA_14 
REMARK    5  A    between atoms: CA_14  and  CB_15 
REMARK    6  A    between atoms: CA_14  and  C_19 
REMARK    7  A    between atoms: CB_15  and  CG_16 
REMARK       I    between atoms: C_19  and  N_21 
REMARK    8  A    between atoms: CA_22  and  C_26 
REMARK       I    between atoms: C_26  and  N_28 
REMARK    9  A    between atoms: N_28  and  CA_29 
REMARK   10  A    between atoms: CA_29  and  C_35 
REMARK   11  A    between atoms: CA_29  and  CB_30 
REMARK   12  A    between atoms: CB_30  and  CG_31 
REMARK   13  A    between atoms: CG_31  and  CD_32 
REMARK       I    between atoms: C_35  and  N_37 
REMARK   14  A    between atoms: N_37  and  CA_38 
REMARK   15  A    between atoms: CA_38  and  CB_39 
REMARK   16  A    between atoms: CA_38  and  C_47 
REMARK   17  A    between atoms: CB_39  and  CG_40 
REMARK       I    between atoms: C_47  and  N_49 
REMARK   18  A    between atoms: N_49  and  CA_50 
REMARK   19  A    between atoms: CA_50  and  CB_51 
REMARK   20  A    between atoms: CA_50  and  C_58 
REMARK   21  A    between atoms: CB_51  and  CG_52 
REMARK   22  A    between atoms: CG_52  and  CD_53 
REMARK   23  A    between atoms: CD_53  and  NE_54 
REMARK       I    between atoms: C_58  and  N_60 
REMARK   24  A    between atoms: N_60  and  CA_61 
REMARK   25  A    between atoms: CA_61  and  C_66 
REMARK   26  A    between atoms: CA_61  and  CB_62 
REMARK   27  A    between atoms: CB_62  and  CG_63 
REMARK       I    between atoms: C_66  and  N_68 
REMARK   28  A    between atoms: N_68  and  CA_69 
REMARK   29  A    between atoms: CA_69  and  CB_70 
REMARK   30  A    between atoms: CA_69  and  C_77 
REMARK   31  A    between atoms: CB_70  and  CG_71 
REMARK       I    between atoms: C_77  and  N_79 
REMARK   32  A    between atoms: N_79  and  CA_80 
REMARK   33  A    between atoms: CA_80  and  CB_81 
REMARK   34  A    between atoms: CA_80  and  C_91 
REMARK   35  A    between atoms: CB_81  and  CG_82 
REMARK       I    between atoms: C_91  and  N_93 
REMARK   36  A    between atoms: N_93  and  CA_94 
REMARK   37  A    between atoms: CA_94  and  C_95 
REMARK       I    between atoms: C_95  and  N_97 
REMARK   38  A    between atoms: N_97  and  CA_98 
REMARK   39  A    between atoms: CA_98  and  C_101 
REMARK   40  A    between atoms: CA_98  and  CB_99 
REMARK       I    between atoms: C_101  and  N_103 
REMARK   41  A    between atoms: N_103  and  CA_104 
REMARK   42  A    between atoms: CA_104  and  C_105 
ROOT
ATOM      1  CA  ARG     6       2.037 -18.740  10.947  1.00  0.00     0.186 C 
ENDROOT
BRANCH   1   2
ATOM      2  N   ARG     6       1.396 -19.984  10.460  1.00  0.00    -0.229 NA
ATOM      3  C   TYR     5       1.658 -20.501   9.253  1.00  0.00     0.275 C 
ATOM      4  O   TYR     5       2.470 -19.992   8.480  1.00  0.00    -0.268 OA
BRANCH   3   5
ATOM      5  CA  TYR     5       0.982 -21.836   8.901  1.00  0.00     0.191 C 
BRANCH   5   6
ATOM      6  N   TYR     5       1.831 -23.023   9.180  1.00  0.00    -0.228 NA
ATOM      7  C   GLU     4       2.002 -23.529  10.413  1.00  0.00     0.274 C 
ATOM      8  O   GLU     4       1.362 -23.140  11.381  1.00  0.00    -0.268 OA
BRANCH   7   9
ATOM      9  CA  GLU     4       2.802 -24.845  10.500  1.00  0.00     0.187 C 
BRANCH   9  10
ATOM     10  CB  GLU     4       4.298 -24.561  10.290  1.00  0.00     0.045 C 
BRANCH  10  11
ATOM     11  CG  GLU     4       5.281 -25.528  10.986  1.00  0.00     0.100 C 
BRANCH  11  12
ATOM     12  CD  GLU     4       6.406 -26.038  10.086  1.00  0.00     0.185 C 
ATOM     13  OE1 GLU     4       7.065 -27.030  10.491  1.00  0.00    -0.647 OA
ATOM     14  OE2 GLU     4       6.904 -25.216   9.291  1.00  0.00    -0.647 OA
ENDBRANCH  11  12
ENDBRANCH  10  11
ENDBRANCH   9  10
BRANCH   9  15
ATOM     15  N   GLU     4       2.371 -25.854   9.513  1.00  0.00    -0.229 NA
ATOM     16  C   PRO     3       1.644 -26.946   9.720  1.00  0.00     0.272 C 
ATOM     17  O   PRO     3       0.905 -27.091  10.695  1.00  0.00    -0.269 OA
BRANCH  16  18
ATOM     18  CA  PRO     3       1.370 -27.793   8.476  1.00  0.00     0.165 C 
ATOM     19  N   PRO     3       1.795 -29.206   8.580  1.00  0.00    -0.312 N 
ATOM     20  CD  PRO     3       0.773 -30.083   7.955  1.00  0.00     0.105 C 
ATOM     21  C   ASP     2       3.001 -29.596   9.034  1.00  0.00     0.257 C 
ATOM     22  CG  PRO     3      -0.195 -29.106   7.268  1.00  0.00     0.027 C 
ATOM     23  CB  PRO     3      -0.116 -27.850   8.131  1.00  0.00     0.034 C 
ATOM     24  O   ASP     2       3.909 -28.766   9.192  1.00  0.00    -0.270 OA
BRANCH  21  25
ATOM     25  CA  ASP     2       3.370 -31.096   9.018  1.00  0.00     0.195 C 
BRANCH  25  26
ATOM     26  CB  ASP     2       2.253 -32.085   9.440  1.00  0.00     0.132 C 
BRANCH  26  27
ATOM     27  CG  ASP     2       2.604 -33.516   8.991  1.00  0.00     0.188 C 
ATOM     28  OD2 ASP     2       3.274 -33.602   7.930  1.00  0.00    -0.647 OA
ATOM     29  OD1 ASP     2       1.791 -34.421   9.305  1.00  0.00    -0.647 OA
ENDBRANCH  26  27
ENDBRANCH  25  26
BRANCH  25  30
ATOM     30  N   ASP     2       4.449 -31.411   9.969  1.00  0.00    -0.228 NA
ATOM     31  C   TYR     1       5.735 -31.213   9.791  1.00  0.00     0.289 C 
ATOM     32  O   TYR     1       6.291 -30.610   8.867  1.00  0.00    -0.268 OA
BRANCH  31  33
ATOM     33  CA  TYR     1       6.570 -31.858  10.892  1.00  0.00     0.385 C 
ATOM     34  N   TYR     1       5.831 -33.029  11.392  1.00  0.00     0.626 N 
BRANCH  33  35
ATOM     35  CB  TYR     1       7.917 -32.236  10.280  1.00  0.00     0.075 C 
BRANCH  35  36
ATOM     36  CG  TYR     1       8.875 -31.041  10.153  1.00  0.00    -0.019 A 
ATOM     37  CD2 TYR     1       8.787 -29.950  11.003  1.00  0.00    -0.002 A 
ATOM     38  CE2 TYR     1       9.746 -28.949  10.956  1.00  0.00     0.027 A 
ATOM     39  CZ  TYR     1      10.792 -29.052  10.039  1.00  0.00     0.131 A 
ATOM     40  CE1 TYR     1      10.851 -30.123   9.166  1.00  0.00     0.027 A 
ATOM     41  OH  TYR     1      11.832 -28.197  10.099  1.00  0.00    -0.190 OA
ATOM     42  CD1 TYR     1       9.892 -31.124   9.213  1.00  0.00    -0.002 A 
ENDBRANCH  35  36
ENDBRANCH  33  35
ENDBRANCH  31  33
ENDBRANCH  25  30
ENDBRANCH  21  25
ENDBRANCH  16  18
ENDBRANCH   9  15
ENDBRANCH   7   9
ENDBRANCH   5   6
BRANCH   5  43
ATOM     43  CB  TYR     5      -0.370 -21.974   9.620  1.00  0.00     0.060 C 
BRANCH  43  44
ATOM     44  CG  TYR     5      -1.281 -23.022   8.957  1.00  0.00    -0.020 A 
ATOM     45  CD2 TYR     5      -2.086 -22.678   7.879  1.00  0.00    -0.002 A 
ATOM     46  CE2 TYR     5      -2.900 -23.634   7.281  1.00  0.00     0.027 A 
ATOM     47  CZ  TYR     5      -2.910 -24.935   7.761  1.00  0.00     0.131 A 
ATOM     48  CE1 TYR     5      -2.094 -25.291   8.829  1.00  0.00     0.027 A 
ATOM     49  OH  TYR     5      -3.797 -25.832   7.279  1.00  0.00    -0.190 OA
ATOM     50  CD1 TYR     5      -1.284 -24.328   9.432  1.00  0.00    -0.002 A 
ENDBRANCH  43  44
ENDBRANCH   5  43
ENDBRANCH   3   5
ENDBRANCH   1   2
BRANCH   1  51
ATOM     51  CB  ARG     6       3.211 -18.298  10.080  1.00  0.00     0.036 C 
BRANCH  51  52
ATOM     52  CG  ARG     6       4.557 -18.321  10.808  1.00  0.00     0.029 C 
BRANCH  52  53
ATOM     53  CD  ARG     6       5.691 -17.997   9.840  1.00  0.00     0.145 C 
BRANCH  53  54
ATOM     54  NE  ARG     6       6.927 -18.701  10.221  1.00  0.00    -0.083 NA
ATOM     55  CZ  ARG     6       7.564 -19.623   9.474  1.00  0.00     0.782 C 
ATOM     56  NH2 ARG     6       8.633 -20.261   9.952  1.00  0.00     0.063 N 
ATOM     57  NH1 ARG     6       7.083 -19.970   8.285  1.00  0.00     0.063 N 
ENDBRANCH  53  54
ENDBRANCH  52  53
ENDBRANCH  51  52
ENDBRANCH   1  51
BRANCH   1  58
ATOM     58  C   ARG     6       1.060 -17.559  10.999  1.00  0.00     0.274 C 
ATOM     59  N   ASN     7      -0.199 -17.836  10.673  1.00  0.00    -0.228 NA
ATOM     60  O   ARG     6       1.478 -16.447  11.325  1.00  0.00    -0.268 OA
BRANCH  59  61
ATOM     61  CA  ASN     7      -1.298 -16.853  10.758  1.00  0.00     0.196 C 
BRANCH  61  62
ATOM     62  C   ASN     7      -2.507 -17.276   9.900  1.00  0.00     0.275 C 
ATOM     63  N   PHE     8      -3.363 -18.152  10.448  1.00  0.00    -0.228 NA
ATOM     64  O   ASN     7      -2.823 -16.539   8.987  1.00  0.00    -0.268 OA
BRANCH  63  65
ATOM     65  CA  PHE     8      -4.624 -18.612   9.817  1.00  0.00     0.191 C 
BRANCH  65  66
ATOM     66  CB  PHE     8      -5.011 -19.959  10.443  1.00  0.00     0.060 C 
BRANCH  66  67
ATOM     67  CG  PHE     8      -5.862 -20.864   9.532  1.00  0.00    -0.020 A 
ATOM     68  CD1 PHE     8      -5.485 -21.067   8.211  1.00  0.00    -0.004 A 
ATOM     69  CE1 PHE     8      -6.309 -21.802   7.360  1.00  0.00    -0.000 A 
ATOM     70  CZ  PHE     8      -7.492 -22.339   7.841  1.00  0.00    -0.000 A 
ATOM     71  CE2 PHE     8      -7.865 -22.148   9.168  1.00  0.00    -0.000 A 
ATOM     72  CD2 PHE     8      -7.040 -21.413  10.020  1.00  0.00    -0.004 A 
ENDBRANCH  66  67
ENDBRANCH  65  66
BRANCH  65  73
ATOM     73  C   PHE     8      -5.790 -17.600   9.874  1.00  0.00     0.275 C 
ATOM     74  N   TRP     9      -6.062 -16.943   8.745  1.00  0.00    -0.228 NA
ATOM     75  O   PHE     8      -6.265 -17.241  10.954  1.00  0.00    -0.268 OA
BRANCH  74  76
ATOM     76  CA  TRP     9      -7.229 -16.036   8.623  1.00  0.00     0.191 C 
BRANCH  76  77
ATOM     77  CB  TRP     9      -6.933 -14.990   7.535  1.00  0.00     0.062 C 
BRANCH  77  78
ATOM     78  CG  TRP     9      -6.224 -13.747   8.073  1.00  0.00     0.001 A 
ATOM     79  CD1 TRP     9      -4.916 -13.620   8.274  1.00  0.00     0.095 A 
ATOM     80  NE1 TRP     9      -4.678 -12.544   9.013  1.00  0.00    -0.244 NA
ATOM     81  CE2 TRP     9      -5.822 -11.936   9.291  1.00  0.00     0.081 A 
ATOM     82  CD2 TRP     9      -6.842 -12.681   8.720  1.00  0.00     0.015 A 
ATOM     83  CZ2 TRP     9      -6.141 -10.838  10.090  1.00  0.00     0.019 A 
ATOM     84  CE3 TRP     9      -8.171 -12.357   8.944  1.00  0.00     0.001 A 
ATOM     85  CZ3 TRP     9      -8.491 -11.270   9.751  1.00  0.00     0.000 A 
ATOM     86  CH2 TRP     9      -7.469 -10.502  10.306  1.00  0.00     0.002 A 
ENDBRANCH  77  78
ENDBRANCH  76  77
BRANCH  76  87
ATOM     87  C   TRP     9      -8.575 -16.752   8.372  1.00  0.00     0.275 C 
ATOM     88  O   TRP     9      -8.829 -17.253   7.281  1.00  0.00    -0.268 OA
ATOM     89  N   GLY    10      -9.381 -16.877   9.426  1.00  0.00    -0.226 NA
BRANCH  89  90
ATOM     90  CA  GLY    10     -10.697 -17.571   9.398  1.00  0.00     0.218 C 
BRANCH  90  91
ATOM     91  C   GLY    10     -11.844 -16.831   8.691  1.00  0.00     0.277 C 
ATOM     92  N   CYS    11     -12.380 -15.828   9.386  1.00  0.00    -0.228 NA
ATOM     93  O   GLY    10     -12.318 -17.266   7.648  1.00  0.00    -0.268 OA
BRANCH  92  94
ATOM     94  CA  CYS    11     -13.476 -14.936   8.945  1.00  0.00     0.198 C 
BRANCH  94  95
ATOM     95  C   CYS    11     -12.996 -13.479   9.097  1.00  0.00     0.275 C 
ATOM     96  O   CYS    11     -12.296 -13.179  10.058  1.00  0.00    -0.268 OA
ATOM     97  N   GLY    12     -13.543 -12.597   8.273  1.00  0.00    -0.225 NA
BRANCH  97  98
ATOM     98  CA  GLY    12     -13.210 -11.165   8.295  1.00  0.00     0.226 C 
BRANCH  98  99
ATOM     99  C   GLY    12     -14.492 -10.381   8.660  1.00  0.00     0.211 C 
ATOM    100  O1  GLY    12     -15.097  -9.818   7.713  1.00  0.00    -0.646 OA
ATOM    101  O2  GLY    12     -14.858 -10.390   9.850  1.00  0.00    -0.646 OA
ENDBRANCH  98  99
ENDBRANCH  97  98
ENDBRANCH  94  95
BRANCH  94 102
ATOM    102  CB  CYS    11     -14.675 -15.075   9.879  1.00  0.00     0.103 C 
ATOM    103  SG  CYS    11     -14.616 -16.469  11.069  1.00  0.00    -0.080 SA
ENDBRANCH  94 102
ENDBRANCH  92  94
ENDBRANCH  90  91
ENDBRANCH  89  90
ENDBRANCH  76  87
ENDBRANCH  74  76
ENDBRANCH  65  73
ENDBRANCH  63  65
ENDBRANCH  61  62
BRANCH  61 104
ATOM    104  CB  ASN     7      -0.820 -15.448  10.370  1.00  0.00     0.126 C 
BRANCH 104 105
ATOM    105  CG  ASN     7      -1.748 -14.302  10.814  1.00  0.00     0.276 C 
ATOM    106  ND2 ASN     7      -1.232 -13.095  10.775  1.00  0.00    -0.107 N 
ATOM    107  OD1 ASN     7      -2.846 -14.449  11.335  1.00  0.00    -0.269 OA
ENDBRANCH 104 105
ENDBRANCH  61 104
ENDBRANCH  59  61
ENDBRANCH   1  58
TORSDOF 42
ENDMDL
MODEL 3
REMARK VINA RESULT:      -2.6      8.496     12.724
REMARK WARNING: 32 MAX_TORS EXCEEDED!!!
REMARK  42 active torsions:
REMARK  status: ('A' for Active; 'I' for Inactive)
REMARK    1  A    between atoms: CA_2  and  CB_3 
REMARK    2  A    between atoms: CA_2  and  C_11 
REMARK    3  A    between atoms: CB_3  and  CG_4 
REMARK       I    between atoms: C_11  and  N_13 
REMARK    4  A    between atoms: N_13  and  CA_14 
REMARK    5  A    between atoms: CA_14  and  CB_15 
REMARK    6  A    between atoms: CA_14  and  C_19 
REMARK    7  A    between atoms: CB_15  and  CG_16 
REMARK       I    between atoms: C_19  and  N_21 
REMARK    8  A    between atoms: CA_22  and  C_26 
REMARK       I    between atoms: C_26  and  N_28 
REMARK    9  A    between atoms: N_28  and  CA_29 
REMARK   10  A    between atoms: CA_29  and  C_35 
REMARK   11  A    between atoms: CA_29  and  CB_30 
REMARK   12  A    between atoms: CB_30  and  CG_31 
REMARK   13  A    between atoms: CG_31  and  CD_32 
REMARK       I    between atoms: C_35  and  N_37 
REMARK   14  A    between atoms: N_37  and  CA_38 
REMARK   15  A    between atoms: CA_38  and  CB_39 
REMARK   16  A    between atoms: CA_38  and  C_47 
REMARK   17  A    between atoms: CB_39  and  CG_40 
REMARK       I    between atoms: C_47  and  N_49 
REMARK   18  A    between atoms: N_49  and  CA_50 
REMARK   19  A    between atoms: CA_50  and  CB_51 
REMARK   20  A    between atoms: CA_50  and  C_58 
REMARK   21  A    between atoms: CB_51  and  CG_52 
REMARK   22  A    between atoms: CG_52  and  CD_53 
REMARK   23  A    between atoms: CD_53  and  NE_54 
REMARK       I    between atoms: C_58  and  N_60 
REMARK   24  A    between atoms: N_60  and  CA_61 
REMARK   25  A    between atoms: CA_61  and  C_66 
REMARK   26  A    between atoms: CA_61  and  CB_62 
REMARK   27  A    between atoms: CB_62  and  CG_63 
REMARK       I    between atoms: C_66  and  N_68 
REMARK   28  A    between atoms: N_68  and  CA_69 
REMARK   29  A    between atoms: CA_69  and  CB_70 
REMARK   30  A    between atoms: CA_69  and  C_77 
REMARK   31  A    between atoms: CB_70  and  CG_71 
REMARK       I    between atoms: C_77  and  N_79 
REMARK   32  A    between atoms: N_79  and  CA_80 
REMARK   33  A    between atoms: CA_80  and  CB_81 
REMARK   34  A    between atoms: CA_80  and  C_91 
REMARK   35  A    between atoms: CB_81  and  CG_82 
REMARK       I    between atoms: C_91  and  N_93 
REMARK   36  A    between atoms: N_93  and  CA_94 
REMARK   37  A    between atoms: CA_94  and  C_95 
REMARK       I    between atoms: C_95  and  N_97 
REMARK   38  A    between atoms: N_97  and  CA_98 
REMARK   39  A    between atoms: CA_98  and  C_101 
REMARK   40  A    between atoms: CA_98  and  CB_99 
REMARK       I    between atoms: C_101  and  N_103 
REMARK   41  A    between atoms: N_103  and  CA_104 
REMARK   42  A    between atoms: CA_104  and  C_105 
ROOT
ATOM      1  CA  ARG     6      -0.064 -22.294  10.249  1.00  0.00     0.186 C 
ENDROOT
BRANCH   1   2
ATOM      2  N   ARG     6      -1.198 -21.362  10.449  1.00  0.00    -0.229 NA
ATOM      3  C   TYR     5      -1.531 -20.432   9.545  1.00  0.00     0.275 C 
ATOM      4  O   TYR     5      -0.934 -20.310   8.475  1.00  0.00    -0.268 OA
BRANCH   3   5
ATOM      5  CA  TYR     5      -2.775 -19.579   9.842  1.00  0.00     0.191 C 
BRANCH   5   6
ATOM      6  N   TYR     5      -4.024 -20.375   9.964  1.00  0.00    -0.228 NA
ATOM      7  C   GLU     4      -5.041 -20.025  10.769  1.00  0.00     0.274 C 
ATOM      8  O   GLU     4      -5.079 -18.952  11.358  1.00  0.00    -0.268 OA
BRANCH   7   9
ATOM      9  CA  GLU     4      -6.315 -20.889  10.664  1.00  0.00     0.187 C 
BRANCH   9  10
ATOM     10  CB  GLU     4      -6.066 -22.073   9.715  1.00  0.00     0.045 C 
BRANCH  10  11
ATOM     11  CG  GLU     4      -6.293 -23.482  10.306  1.00  0.00     0.100 C 
BRANCH  11  12
ATOM     12  CD  GLU     4      -7.239 -24.361   9.490  1.00  0.00     0.185 C 
ATOM     13  OE1 GLU     4      -8.421 -23.954   9.340  1.00  0.00    -0.647 OA
ATOM     14  OE2 GLU     4      -6.966 -25.577   9.433  1.00  0.00    -0.647 OA
ENDBRANCH  11  12
ENDBRANCH  10  11
ENDBRANCH   9  10
BRANCH   9  15
ATOM     15  N   GLU     4      -7.490 -20.138  10.182  1.00  0.00    -0.229 NA
ATOM     16  C   PRO     3      -7.636 -19.494   9.030  1.00  0.00     0.272 C 
ATOM     17  O   PRO     3      -6.955 -19.734   8.031  1.00  0.00    -0.269 OA
BRANCH  16  18
ATOM     18  CA  PRO     3      -8.988 -18.807   8.832  1.00  0.00     0.165 C 
ATOM     19  N   PRO     3      -8.916 -17.448   8.255  1.00  0.00    -0.312 N 
ATOM     20  CD  PRO     3     -10.012 -17.265   7.269  1.00  0.00     0.105 C 
ATOM     21  C   ASP     2      -8.077 -16.491   8.691  1.00  0.00     0.257 C 
ATOM     22  CG  PRO     3     -10.887 -18.516   7.439  1.00  0.00     0.027 C 
ATOM     23  CB  PRO     3      -9.903 -19.590   7.893  1.00  0.00     0.034 C 
ATOM     24  O   ASP     2      -7.458 -16.637   9.755  1.00  0.00    -0.270 OA
BRANCH  21  25
ATOM     25  CA  ASP     2      -8.149 -15.077   8.070  1.00  0.00     0.195 C 
BRANCH  25  26
ATOM     26  CB  ASP     2      -6.803 -14.453   7.619  1.00  0.00     0.132 C 
BRANCH  26  27
ATOM     27  CG  ASP     2      -5.691 -15.519   7.614  1.00  0.00     0.188 C 
ATOM     28  OD2 ASP     2      -6.049 -16.674   7.268  1.00  0.00    -0.647 OA
ATOM     29  OD1 ASP     2      -4.757 -15.364   8.440  1.00  0.00    -0.647 OA
ENDBRANCH  26  27
ENDBRANCH  25  26
BRANCH  25  30
ATOM     30  N   ASP     2      -8.657 -14.078   9.026  1.00  0.00    -0.228 NA
ATOM     31  C   TYR     1      -9.559 -13.154   8.789  1.00  0.00     0.289 C 
ATOM     32  O   TYR     1     -10.259 -13.014   7.780  1.00  0.00    -0.268 OA
BRANCH  31  33
ATOM     33  CA  TYR     1      -9.678 -12.163   9.943  1.00  0.00     0.385 C 
ATOM     34  N   TYR     1     -10.791 -12.602  10.801  1.00  0.00     0.626 N 
BRANCH  33  35
ATOM     35  CB  TYR     1      -8.340 -12.158  10.678  1.00  0.00     0.075 C 
BRANCH  35  36
ATOM     36  CG  TYR     1      -7.394 -11.048  10.197  1.00  0.00    -0.019 A 
ATOM     37  CD2 TYR     1      -6.088 -11.323   9.823  1.00  0.00    -0.002 A 
ATOM     38  CE2 TYR     1      -5.298 -10.330   9.264  1.00  0.00     0.027 A 
ATOM     39  CZ  TYR     1      -5.832  -9.053   9.091  1.00  0.00     0.131 A 
ATOM     40  CE1 TYR     1      -7.122  -8.775   9.505  1.00  0.00     0.027 A 
ATOM     41  OH  TYR     1      -5.155  -8.125   8.385  1.00  0.00    -0.190 OA
ATOM     42  CD1 TYR     1      -7.912  -9.768  10.063  1.00  0.00    -0.002 A 
ENDBRANCH  35  36
ENDBRANCH  33  35
ENDBRANCH  31  33
ENDBRANCH  25  30
ENDBRANCH  21  25
ENDBRANCH  16  18
ENDBRANCH   9  15
ENDBRANCH   7   9
ENDBRANCH   5   6
BRANCH   5  43
ATOM     43  CB  TYR     5      -2.567 -18.727  11.106  1.00  0.00     0.060 C 
BRANCH  43  44
ATOM     44  CG  TYR     5      -2.186 -17.274  10.773  1.00  0.00    -0.020 A 
ATOM     45  CD2 TYR     5      -1.000 -16.989  10.110  1.00  0.00    -0.002 A 
ATOM     46  CE2 TYR     5      -0.667 -15.672   9.807  1.00  0.00     0.027 A 
ATOM     47  CZ  TYR     5      -1.521 -14.641  10.167  1.00  0.00     0.131 A 
ATOM     48  CE1 TYR     5      -2.719 -14.920  10.815  1.00  0.00     0.027 A 
ATOM     49  OH  TYR     5      -1.142 -13.355  10.003  1.00  0.00    -0.190 OA
ATOM     50  CD1 TYR     5      -3.046 -16.240  11.126  1.00  0.00    -0.002 A 
ENDBRANCH  43  44
ENDBRANCH   5  43
ENDBRANCH   3   5
ENDBRANCH   1   2
BRANCH   1  51
ATOM     51  CB  ARG     6       0.952 -22.246  11.386  1.00  0.00     0.036 C 
BRANCH  51  52
ATOM     52  CG  ARG     6       2.158 -21.350  11.096  1.00  0.00     0.029 C 
BRANCH  52  53
ATOM     53  CD  ARG     6       3.222 -22.124  10.323  1.00  0.00     0.145 C 
BRANCH  53  54
ATOM     54  NE  ARG     6       4.003 -21.226   9.456  1.00  0.00    -0.083 NA
ATOM     55  CZ  ARG     6       5.185 -21.525   8.885  1.00  0.00     0.782 C 
ATOM     56  NH2 ARG     6       5.851 -20.605   8.184  1.00  0.00     0.063 N 
ATOM     57  NH1 ARG     6       5.745 -22.713   9.085  1.00  0.00     0.063 N 
ENDBRANCH  53  54
ENDBRANCH  52  53
ENDBRANCH  51  52
ENDBRANCH   1  51
BRANCH   1  58
ATOM     58  C   ARG     6      -0.518 -23.754  10.128  1.00  0.00     0.274 C 
ATOM     59  N   ASN     7      -0.485 -24.269   8.902  1.00  0.00    -0.228 NA
ATOM     60  O   ARG     6      -0.884 -24.356  11.139  1.00  0.00    -0.268 OA
BRANCH  59  61
ATOM     61  CA  ASN     7      -0.791 -25.684   8.604  1.00  0.00     0.196 C 
BRANCH  61  62
ATOM     62  C   ASN     7       0.485 -26.549   8.591  1.00  0.00     0.275 C 
ATOM     63  N   PHE     8       0.528 -27.580   9.449  1.00  0.00    -0.228 NA
ATOM     64  O   ASN     7       1.175 -26.504   7.592  1.00  0.00    -0.268 OA
BRANCH  63  65
ATOM     65  CA  PHE     8       1.626 -28.574   9.526  1.00  0.00     0.191 C 
BRANCH  65  66
ATOM     66  CB  PHE     8       2.105 -28.649  10.983  1.00  0.00     0.060 C 
BRANCH  66  67
ATOM     67  CG  PHE     8       3.622 -28.459  11.165  1.00  0.00    -0.020 A 
ATOM     68  CD1 PHE     8       4.169 -27.183  11.136  1.00  0.00    -0.004 A 
ATOM     69  CE1 PHE     8       5.552 -27.019  11.198  1.00  0.00    -0.000 A 
ATOM     70  CZ  PHE     8       6.373 -28.130  11.304  1.00  0.00    -0.000 A 
ATOM     71  CE2 PHE     8       5.827 -29.409  11.346  1.00  0.00    -0.000 A 
ATOM     72  CD2 PHE     8       4.443 -29.573  11.284  1.00  0.00    -0.004 A 
ENDBRANCH  66  67
ENDBRANCH  65  66
BRANCH  65  73
ATOM     73  C   PHE     8       1.283 -29.972   8.965  1.00  0.00     0.275 C 
ATOM     74  N   TRP     9       2.261 -30.879   8.991  1.00  0.00    -0.228 NA
ATOM     75  O   PHE     8       0.256 -30.155   8.306  1.00  0.00    -0.268 OA
BRANCH  74  76
ATOM     76  CA  TRP     9       2.035 -32.292   8.599  1.00  0.00     0.191 C 
BRANCH  76  77
ATOM     77  CB  TRP     9       2.760 -32.561   7.271  1.00  0.00     0.062 C 
BRANCH  77  78
ATOM     78  CG  TRP     9       4.265 -32.306   7.344  1.00  0.00     0.001 A 
ATOM     79  CD1 TRP     9       5.196 -33.205   7.651  1.00  0.00     0.095 A 
ATOM     80  NE1 TRP     9       6.343 -32.593   7.911  1.00  0.00    -0.244 NA
ATOM     81  CE2 TRP     9       6.192 -31.285   7.760  1.00  0.00     0.081 A 
ATOM     82  CD2 TRP     9       4.870 -31.055   7.411  1.00  0.00     0.015 A 
ATOM     83  CZ2 TRP     9       7.038 -30.201   7.991  1.00  0.00     0.019 A 
ATOM     84  CE3 TRP     9       4.379 -29.762   7.303  1.00  0.00     0.001 A 
ATOM     85  CZ3 TRP     9       5.218 -28.680   7.545  1.00  0.00     0.000 A 
ATOM     86  CH2 TRP     9       6.554 -28.907   7.871  1.00  0.00     0.002 A 
ENDBRANCH  77  78
ENDBRANCH  76  77
BRANCH  76  87
ATOM     87  C   TRP     9       2.423 -33.327   9.680  1.00  0.00     0.275 C 
ATOM     88  O   TRP     9       3.540 -33.317  10.189  1.00  0.00    -0.268 OA
ATOM     89  N   GLY    10       1.454 -34.146  10.085  1.00  0.00    -0.226 NA
BRANCH  89  90
ATOM     90  CA  GLY    10       1.617 -35.179  11.145  1.00  0.00     0.218 C 
BRANCH  90  91
ATOM     91  C   GLY    10       1.564 -36.644  10.683  1.00  0.00     0.277 C 
ATOM     92  N   CYS    11       2.026 -36.864   9.453  1.00  0.00    -0.228 NA
ATOM     93  O   GLY    10       0.975 -37.487  11.350  1.00  0.00    -0.268 OA
BRANCH  92  94
ATOM     94  CA  CYS    11       2.115 -38.171   8.765  1.00  0.00     0.198 C 
BRANCH  94  95
ATOM     95  C   CYS    11       3.593 -38.424   8.408  1.00  0.00     0.275 C 
ATOM     96  O   CYS    11       3.976 -39.576   8.236  1.00  0.00    -0.268 OA
ATOM     97  N   GLY    12       4.402 -37.380   8.506  1.00  0.00    -0.225 NA
BRANCH  97  98
ATOM     98  CA  GLY    12       5.843 -37.452   8.217  1.00  0.00     0.226 C 
BRANCH  98  99
ATOM     99  C   GLY    12       6.604 -37.381   9.562  1.00  0.00     0.211 C 
ATOM    100  O1  GLY    12       7.626 -38.105   9.670  1.00  0.00    -0.646 OA
ATOM    101  O2  GLY    12       6.180 -36.593  10.427  1.00  0.00    -0.646 OA
ENDBRANCH  98  99
ENDBRANCH  97  98
ENDBRANCH  94  95
BRANCH  94 102
ATOM    102  CB  CYS    11       1.373 -38.116   7.432  1.00  0.00     0.103 C 
ATOM    103  SG  CYS    11      -0.080 -39.224   7.269  1.00  0.00    -0.080 SA
ENDBRANCH  94 102
ENDBRANCH  92  94
ENDBRANCH  90  91
ENDBRANCH  89  90
ENDBRANCH  76  87
ENDBRANCH  74  76
ENDBRANCH  65  73
ENDBRANCH  63  65
ENDBRANCH  61  62
BRANCH  61 104
ATOM    104  CB  ASN     7      -1.556 -25.821   7.282  1.00  0.00     0.126 C 
BRANCH 104 105
ATOM    105  CG  ASN     7      -3.050 -26.165   7.432  1.00  0.00     0.276 C 
ATOM    106  ND2 ASN     7      -3.814 -25.214   7.918  1.00  0.00    -0.107 N 
ATOM    107  OD1 ASN     7      -3.533 -27.281   7.283  1.00  0.00    -0.269 OA
ENDBRANCH 104 105
ENDBRANCH  61 104
ENDBRANCH  59  61
ENDBRANCH   1  58
TORSDOF 42
ENDMDL
MODEL 4
REMARK VINA RESULT:      -2.5      7.420     20.848
REMARK WARNING: 32 MAX_TORS EXCEEDED!!!
REMARK  42 active torsions:
REMARK  status: ('A' for Active; 'I' for Inactive)
REMARK    1  A    between atoms: CA_2  and  CB_3 
REMARK    2  A    between atoms: CA_2  and  C_11 
REMARK    3  A    between atoms: CB_3  and  CG_4 
REMARK       I    between atoms: C_11  and  N_13 
REMARK    4  A    between atoms: N_13  and  CA_14 
REMARK    5  A    between atoms: CA_14  and  CB_15 
REMARK    6  A    between atoms: CA_14  and  C_19 
REMARK    7  A    between atoms: CB_15  and  CG_16 
REMARK       I    between atoms: C_19  and  N_21 
REMARK    8  A    between atoms: CA_22  and  C_26 
REMARK       I    between atoms: C_26  and  N_28 
REMARK    9  A    between atoms: N_28  and  CA_29 
REMARK   10  A    between atoms: CA_29  and  C_35 
REMARK   11  A    between atoms: CA_29  and  CB_30 
REMARK   12  A    between atoms: CB_30  and  CG_31 
REMARK   13  A    between atoms: CG_31  and  CD_32 
REMARK       I    between atoms: C_35  and  N_37 
REMARK   14  A    between atoms: N_37  and  CA_38 
REMARK   15  A    between atoms: CA_38  and  CB_39 
REMARK   16  A    between atoms: CA_38  and  C_47 
REMARK   17  A    between atoms: CB_39  and  CG_40 
REMARK       I    between atoms: C_47  and  N_49 
REMARK   18  A    between atoms: N_49  and  CA_50 
REMARK   19  A    between atoms: CA_50  and  CB_51 
REMARK   20  A    between atoms: CA_50  and  C_58 
REMARK   21  A    between atoms: CB_51  and  CG_52 
REMARK   22  A    between atoms: CG_52  and  CD_53 
REMARK   23  A    between atoms: CD_53  and  NE_54 
REMARK       I    between atoms: C_58  and  N_60 
REMARK   24  A    between atoms: N_60  and  CA_61 
REMARK   25  A    between atoms: CA_61  and  C_66 
REMARK   26  A    between atoms: CA_61  and  CB_62 
REMARK   27  A    between atoms: CB_62  and  CG_63 
REMARK       I    between atoms: C_66  and  N_68 
REMARK   28  A    between atoms: N_68  and  CA_69 
REMARK   29  A    between atoms: CA_69  and  CB_70 
REMARK   30  A    between atoms: CA_69  and  C_77 
REMARK   31  A    between atoms: CB_70  and  CG_71 
REMARK       I    between atoms: C_77  and  N_79 
REMARK   32  A    between atoms: N_79  and  CA_80 
REMARK   33  A    between atoms: CA_80  and  CB_81 
REMARK   34  A    between atoms: CA_80  and  C_91 
REMARK   35  A    between atoms: CB_81  and  CG_82 
REMARK       I    between atoms: C_91  and  N_93 
REMARK   36  A    between atoms: N_93  and  CA_94 
REMARK   37  A    between atoms: CA_94  and  C_95 
REMARK       I    between atoms: C_95  and  N_97 
REMARK   38  A    between atoms: N_97  and  CA_98 
REMARK   39  A    between atoms: CA_98  and  C_101 
REMARK   40  A    between atoms: CA_98  and  CB_99 
REMARK       I    between atoms: C_101  and  N_103 
REMARK   41  A    between atoms: N_103  and  CA_104 
REMARK   42  A    between atoms: CA_104  and  C_105 
ROOT
ATOM      1  CA  ARG     6      -0.200 -18.079   9.009  1.00  0.00     0.186 C 
ENDROOT
BRANCH   1   2
ATOM      2  N   ARG     6       1.222 -18.038   9.422  1.00  0.00    -0.229 NA
ATOM      3  C   TYR     5       2.123 -18.927   8.984  1.00  0.00     0.275 C 
ATOM      4  O   TYR     5       1.833 -19.820   8.187  1.00  0.00    -0.268 OA
BRANCH   3   5
ATOM      5  CA  TYR     5       3.580 -18.726   9.431  1.00  0.00     0.191 C 
BRANCH   5   6
ATOM      6  N   TYR     5       4.147 -19.897  10.149  1.00  0.00    -0.228 NA
ATOM      7  C   GLU     4       4.716 -20.939   9.519  1.00  0.00     0.274 C 
ATOM      8  O   GLU     4       4.937 -20.941   8.315  1.00  0.00    -0.268 OA
BRANCH   7   9
ATOM      9  CA  GLU     4       5.377 -21.998  10.424  1.00  0.00     0.187 C 
BRANCH   9  10
ATOM     10  CB  GLU     4       6.665 -21.428  11.039  1.00  0.00     0.045 C 
BRANCH  10  11
ATOM     11  CG  GLU     4       7.488 -20.478  10.142  1.00  0.00     0.100 C 
BRANCH  11  12
ATOM     12  CD  GLU     4       8.853 -21.028   9.730  1.00  0.00     0.185 C 
ATOM     13  OE1 GLU     4       9.500 -20.381   8.865  1.00  0.00    -0.647 OA
ATOM     14  OE2 GLU     4       9.034 -22.253   9.884  1.00  0.00    -0.647 OA
ENDBRANCH  11  12
ENDBRANCH  10  11
ENDBRANCH   9  10
BRANCH   9  15
ATOM     15  N   GLU     4       5.708 -23.248   9.712  1.00  0.00    -0.229 NA
ATOM     16  C   PRO     3       5.016 -24.380   9.679  1.00  0.00     0.272 C 
ATOM     17  O   PRO     3       3.812 -24.445   9.931  1.00  0.00    -0.269 OA
BRANCH  16  18
ATOM     18  CA  PRO     3       5.638 -25.501   8.842  1.00  0.00     0.165 C 
ATOM     19  N   PRO     3       5.807 -26.786   9.553  1.00  0.00    -0.312 N 
ATOM     20  CD  PRO     3       5.460 -27.909   8.644  1.00  0.00     0.105 C 
ATOM     21  C   ASP     2       6.345 -26.901  10.781  1.00  0.00     0.257 C 
ATOM     22  CG  PRO     3       5.281 -27.243   7.271  1.00  0.00     0.027 C 
ATOM     23  CB  PRO     3       4.801 -25.835   7.609  1.00  0.00     0.034 C 
ATOM     24  O   ASP     2       6.930 -25.938  11.301  1.00  0.00    -0.270 OA
BRANCH  21  25
ATOM     25  CA  ASP     2       6.552 -28.305  11.392  1.00  0.00     0.195 C 
BRANCH  25  26
ATOM     26  CB  ASP     2       7.553 -29.235  10.660  1.00  0.00     0.132 C 
BRANCH  26  27
ATOM     27  CG  ASP     2       8.793 -28.441  10.207  1.00  0.00     0.188 C 
ATOM     28  OD2 ASP     2       8.869 -28.214   8.973  1.00  0.00    -0.647 OA
ATOM     29  OD1 ASP     2       9.835 -28.583  10.894  1.00  0.00    -0.647 OA
ENDBRANCH  26  27
ENDBRANCH  25  26
BRANCH  25  30
ATOM     30  N   ASP     2       5.313 -29.101  11.384  1.00  0.00    -0.228 NA
ATOM     31  C   TYR     1       5.220 -30.407  11.288  1.00  0.00     0.289 C 
ATOM     32  O   TYR     1       6.132 -31.239  11.323  1.00  0.00    -0.268 OA
BRANCH  31  33
ATOM     33  CA  TYR     1       3.778 -30.864  11.092  1.00  0.00     0.385 C 
ATOM     34  N   TYR     1       3.351 -30.446   9.746  1.00  0.00     0.626 N 
BRANCH  33  35
ATOM     35  CB  TYR     1       3.752 -32.380  11.268  1.00  0.00     0.075 C 
BRANCH  35  36
ATOM     36  CG  TYR     1       3.031 -33.107  10.122  1.00  0.00    -0.019 A 
ATOM     37  CD2 TYR     1       3.736 -33.794   9.146  1.00  0.00    -0.002 A 
ATOM     38  CE2 TYR     1       3.060 -34.553   8.202  1.00  0.00     0.027 A 
ATOM     39  CZ  TYR     1       1.667 -34.608   8.244  1.00  0.00     0.131 A 
ATOM     40  CE1 TYR     1       0.969 -33.887   9.196  1.00  0.00     0.027 A 
ATOM     41  OH  TYR     1       0.999 -35.480   7.463  1.00  0.00    -0.190 OA
ATOM     42  CD1 TYR     1       1.645 -33.128  10.140  1.00  0.00    -0.002 A 
ENDBRANCH  35  36
ENDBRANCH  33  35
ENDBRANCH  31  33
ENDBRANCH  25  30
ENDBRANCH  21  25
ENDBRANCH  16  18
ENDBRANCH   9  15
ENDBRANCH   7   9
ENDBRANCH   5   6
BRANCH   5  43
ATOM     43  CB  TYR     5       4.475 -18.355   8.237  1.00  0.00     0.060 C 
BRANCH  43  44
ATOM     44  CG  TYR     5       5.335 -17.111   8.515  1.00  0.00    -0.020 A 
ATOM     45  CD2 TYR     5       4.778 -15.840   8.457  1.00  0.00    -0.002 A 
ATOM     46  CE2 TYR     5       5.562 -14.720   8.719  1.00  0.00     0.027 A 
ATOM     47  CZ  TYR     5       6.903 -14.872   9.038  1.00  0.00     0.131 A 
ATOM     48  CE1 TYR     5       7.463 -16.142   9.115  1.00  0.00     0.027 A 
ATOM     49  OH  TYR     5       7.701 -13.789   9.155  1.00  0.00    -0.190 OA
ATOM     50  CD1 TYR     5       6.677 -17.262   8.844  1.00  0.00    -0.002 A 
ENDBRANCH  43  44
ENDBRANCH   5  43
ENDBRANCH   3   5
ENDBRANCH   1   2
BRANCH   1  51
ATOM     51  CB  ARG     6      -0.680 -19.488   8.674  1.00  0.00     0.036 C 
BRANCH  51  52
ATOM     52  CG  ARG     6      -1.499 -19.567   7.383  1.00  0.00     0.029 C 
BRANCH  52  53
ATOM     53  CD  ARG     6      -2.950 -19.922   7.695  1.00  0.00     0.145 C 
BRANCH  53  54
ATOM     54  NE  ARG     6      -3.165 -20.036   9.147  1.00  0.00    -0.083 NA
ATOM     55  CZ  ARG     6      -4.231 -20.609   9.736  1.00  0.00     0.782 C 
ATOM     56  NH2 ARG     6      -4.367 -20.584  11.064  1.00  0.00     0.063 N 
ATOM     57  NH1 ARG     6      -5.206 -21.130   8.999  1.00  0.00     0.063 N 
ENDBRANCH  53  54
ENDBRANCH  52  53
ENDBRANCH  51  52
ENDBRANCH   1  51
BRANCH   1  58
ATOM     58  C   ARG     6      -1.142 -17.542  10.094  1.00  0.00     0.274 C 
ATOM     59  N   ASN     7      -2.087 -16.705   9.674  1.00  0.00    -0.228 NA
ATOM     60  O   ARG     6      -0.979 -17.897  11.262  1.00  0.00    -0.268 OA
BRANCH  59  61
ATOM     61  CA  ASN     7      -3.144 -16.162  10.553  1.00  0.00     0.196 C 
BRANCH  61  62
ATOM     62  C   ASN     7      -4.489 -16.037   9.812  1.00  0.00     0.275 C 
ATOM     63  N   PHE     8      -5.422 -15.254  10.375  1.00  0.00    -0.228 NA
ATOM     64  O   ASN     7      -4.497 -16.312   8.628  1.00  0.00    -0.268 OA
BRANCH  63  65
ATOM     65  CA  PHE     8      -6.741 -14.940   9.773  1.00  0.00     0.191 C 
BRANCH  65  66
ATOM     66  CB  PHE     8      -6.504 -14.337   8.382  1.00  0.00     0.060 C 
BRANCH  66  67
ATOM     67  CG  PHE     8      -6.464 -12.798   8.353  1.00  0.00    -0.020 A 
ATOM     68  CD1 PHE     8      -5.281 -12.141   8.047  1.00  0.00    -0.004 A 
ATOM     69  CE1 PHE     8      -5.220 -10.749   8.122  1.00  0.00    -0.000 A 
ATOM     70  CZ  PHE     8      -6.346 -10.030   8.485  1.00  0.00    -0.000 A 
ATOM     71  CE2 PHE     8      -7.538 -10.685   8.779  1.00  0.00    -0.000 A 
ATOM     72  CD2 PHE     8      -7.598 -12.077   8.705  1.00  0.00    -0.004 A 
ENDBRANCH  66  67
ENDBRANCH  65  66
BRANCH  65  73
ATOM     73  C   PHE     8      -7.733 -16.124   9.721  1.00  0.00     0.275 C 
ATOM     74  N   TRP     9      -8.454 -16.245   8.606  1.00  0.00    -0.228 NA
ATOM     75  O   PHE     8      -8.018 -16.756  10.741  1.00  0.00    -0.268 OA
BRANCH  74  76
ATOM     76  CA  TRP     9      -9.352 -17.403   8.371  1.00  0.00     0.191 C 
BRANCH  76  77
ATOM     77  CB  TRP     9     -10.358 -17.034   7.267  1.00  0.00     0.062 C 
BRANCH  77  78
ATOM     78  CG  TRP     9     -11.032 -15.682   7.495  1.00  0.00     0.001 A 
ATOM     79  CD1 TRP     9     -10.420 -14.550   7.830  1.00  0.00     0.095 A 
ATOM     80  NE1 TRP     9     -11.316 -13.657   8.231  1.00  0.00    -0.244 NA
ATOM     81  CE2 TRP     9     -12.530 -14.180   8.147  1.00  0.00     0.081 A 
ATOM     82  CD2 TRP     9     -12.395 -15.482   7.692  1.00  0.00     0.015 A 
ATOM     83  CZ2 TRP     9     -13.790 -13.712   8.520  1.00  0.00     0.019 A 
ATOM     84  CE3 TRP     9     -13.493 -16.327   7.618  1.00  0.00     0.001 A 
ATOM     85  CZ3 TRP     9     -14.748 -15.866   8.002  1.00  0.00     0.000 A 
ATOM     86  CH2 TRP     9     -14.892 -14.549   8.434  1.00  0.00     0.002 A 
ENDBRANCH  77  78
ENDBRANCH  76  77
BRANCH  76  87
ATOM     87  C   TRP     9      -8.622 -18.728   8.057  1.00  0.00     0.275 C 
ATOM     88  O   TRP     9      -7.402 -18.815   8.161  1.00  0.00    -0.268 OA
ATOM     89  N   GLY    10      -9.397 -19.774   7.773  1.00  0.00    -0.226 NA
BRANCH  89  90
ATOM     90  CA  GLY    10      -8.886 -21.142   7.485  1.00  0.00     0.218 C 
BRANCH  90  91
ATOM     91  C   GLY    10      -9.567 -22.296   8.239  1.00  0.00     0.277 C 
ATOM     92  N   CYS    11      -9.150 -23.515   7.898  1.00  0.00    -0.228 NA
ATOM     93  O   GLY    10     -10.535 -22.085   8.960  1.00  0.00    -0.268 OA
BRANCH  92  94
ATOM     94  CA  CYS    11      -9.612 -24.798   8.473  1.00  0.00     0.198 C 
BRANCH  94  95
ATOM     95  C   CYS    11      -8.629 -25.204   9.588  1.00  0.00     0.275 C 
ATOM     96  O   CYS    11      -9.047 -25.329  10.734  1.00  0.00    -0.268 OA
ATOM     97  N   GLY    12      -7.345 -25.198   9.263  1.00  0.00    -0.225 NA
BRANCH  97  98
ATOM     98  CA  GLY    12      -6.276 -25.544  10.212  1.00  0.00     0.226 C 
BRANCH  98  99
ATOM     99  C   GLY    12      -4.964 -24.896   9.711  1.00  0.00     0.211 C 
ATOM    100  O1  GLY    12      -4.588 -25.207   8.553  1.00  0.00    -0.646 OA
ATOM    101  O2  GLY    12      -4.391 -24.088  10.465  1.00  0.00    -0.646 OA
ENDBRANCH  98  99
ENDBRANCH  97  98
ENDBRANCH  94  95
BRANCH  94 102
ATOM    102  CB  CYS    11      -9.526 -25.905   7.424  1.00  0.00     0.103 C 
ATOM    103  SG  CYS    11      -9.903 -27.602   8.009  1.00  0.00    -0.080 SA
ENDBRANCH  94 102
ENDBRANCH  92  94
ENDBRANCH  90  91
ENDBRANCH  89  90
ENDBRANCH  76  87
ENDBRANCH  74  76
ENDBRANCH  65  73
ENDBRANCH  63  65
ENDBRANCH  61  62
BRANCH  61 104
ATOM    104  CB  ASN     7      -2.727 -14.816  11.159  1.00  0.00     0.126 C 
BRANCH 104 105
ATOM    105  CG  ASN     7      -1.472 -14.184  10.530  1.00  0.00     0.276 C 
ATOM    106  ND2 ASN     7      -1.675 -13.135   9.766  1.00  0.00    -0.107 N 
ATOM    107  OD1 ASN     7      -0.348 -14.670  10.563  1.00  0.00    -0.269 OA
ENDBRANCH 104 105
ENDBRANCH  61 104
ENDBRANCH  59  61
ENDBRANCH   1  58
TORSDOF 42
ENDMDL
MODEL 5
REMARK VINA RESULT:      -2.5      7.931     20.937
REMARK WARNING: 32 MAX_TORS EXCEEDED!!!
REMARK  42 active torsions:
REMARK  status: ('A' for Active; 'I' for Inactive)
REMARK    1  A    between atoms: CA_2  and  CB_3 
REMARK    2  A    between atoms: CA_2  and  C_11 
REMARK    3  A    between atoms: CB_3  and  CG_4 
REMARK       I    between atoms: C_11  and  N_13 
REMARK    4  A    between atoms: N_13  and  CA_14 
REMARK    5  A    between atoms: CA_14  and  CB_15 
REMARK    6  A    between atoms: CA_14  and  C_19 
REMARK    7  A    between atoms: CB_15  and  CG_16 
REMARK       I    between atoms: C_19  and  N_21 
REMARK    8  A    between atoms: CA_22  and  C_26 
REMARK       I    between atoms: C_26  and  N_28 
REMARK    9  A    between atoms: N_28  and  CA_29 
REMARK   10  A    between atoms: CA_29  and  C_35 
REMARK   11  A    between atoms: CA_29  and  CB_30 
REMARK   12  A    between atoms: CB_30  and  CG_31 
REMARK   13  A    between atoms: CG_31  and  CD_32 
REMARK       I    between atoms: C_35  and  N_37 
REMARK   14  A    between atoms: N_37  and  CA_38 
REMARK   15  A    between atoms: CA_38  and  CB_39 
REMARK   16  A    between atoms: CA_38  and  C_47 
REMARK   17  A    between atoms: CB_39  and  CG_40 
REMARK       I    between atoms: C_47  and  N_49 
REMARK   18  A    between atoms: N_49  and  CA_50 
REMARK   19  A    between atoms: CA_50  and  CB_51 
REMARK   20  A    between atoms: CA_50  and  C_58 
REMARK   21  A    between atoms: CB_51  and  CG_52 
REMARK   22  A    between atoms: CG_52  and  CD_53 
REMARK   23  A    between atoms: CD_53  and  NE_54 
REMARK       I    between atoms: C_58  and  N_60 
REMARK   24  A    between atoms: N_60  and  CA_61 
REMARK   25  A    between atoms: CA_61  and  C_66 
REMARK   26  A    between atoms: CA_61  and  CB_62 
REMARK   27  A    between atoms: CB_62  and  CG_63 
REMARK       I    between atoms: C_66  and  N_68 
REMARK   28  A    between atoms: N_68  and  CA_69 
REMARK   29  A    between atoms: CA_69  and  CB_70 
REMARK   30  A    between atoms: CA_69  and  C_77 
REMARK   31  A    between atoms: CB_70  and  CG_71 
REMARK       I    between atoms: C_77  and  N_79 
REMARK   32  A    between atoms: N_79  and  CA_80 
REMARK   33  A    between atoms: CA_80  and  CB_81 
REMARK   34  A    between atoms: CA_80  and  C_91 
REMARK   35  A    between atoms: CB_81  and  CG_82 
REMARK       I    between atoms: C_91  and  N_93 
REMARK   36  A    between atoms: N_93  and  CA_94 
REMARK   37  A    between atoms: CA_94  and  C_95 
REMARK       I    between atoms: C_95  and  N_97 
REMARK   38  A    between atoms: N_97  and  CA_98 
REMARK   39  A    between atoms: CA_98  and  C_101 
REMARK   40  A    between atoms: CA_98  and  CB_99 
REMARK       I    between atoms: C_101  and  N_103 
REMARK   41  A    between atoms: N_103  and  CA_104 
REMARK   42  A    between atoms: CA_104  and  C_105 
ROOT
ATOM      1  CA  ARG     6      -0.541 -17.686   9.032  1.00  0.00     0.186 C 
ENDROOT
BRANCH   1   2
ATOM      2  N   ARG     6       0.894 -17.679   9.400  1.00  0.00    -0.229 NA
ATOM      3  C   TYR     5       1.755 -18.602   8.952  1.00  0.00     0.275 C 
ATOM      4  O   TYR     5       1.416 -19.499   8.180  1.00  0.00    -0.268 OA
BRANCH   3   5
ATOM      5  CA  TYR     5       3.231 -18.436   9.350  1.00  0.00     0.191 C 
BRANCH   5   6
ATOM      6  N   TYR     5       3.784 -19.609  10.077  1.00  0.00    -0.228 NA
ATOM      7  C   GLU     4       4.302 -20.680   9.454  1.00  0.00     0.274 C 
ATOM      8  O   GLU     4       4.487 -20.715   8.244  1.00  0.00    -0.268 OA
BRANCH   7   9
ATOM      9  CA  GLU     4       4.958 -21.740  10.362  1.00  0.00     0.187 C 
BRANCH   9  10
ATOM     10  CB  GLU     4       6.264 -21.185  10.952  1.00  0.00     0.045 C 
BRANCH  10  11
ATOM     11  CG  GLU     4       7.357 -20.786   9.936  1.00  0.00     0.100 C 
BRANCH  11  12
ATOM     12  CD  GLU     4       8.630 -21.628  10.020  1.00  0.00     0.185 C 
ATOM     13  OE1 GLU     4       8.493 -22.868  10.185  1.00  0.00    -0.647 OA
ATOM     14  OE2 GLU     4       9.668 -21.041  10.388  1.00  0.00    -0.647 OA
ENDBRANCH  11  12
ENDBRANCH  10  11
ENDBRANCH   9  10
BRANCH   9  15
ATOM     15  N   GLU     4       5.257 -23.003   9.661  1.00  0.00    -0.229 NA
ATOM     16  C   PRO     3       4.547 -24.125   9.654  1.00  0.00     0.272 C 
ATOM     17  O   PRO     3       3.346 -24.168   9.928  1.00  0.00    -0.269 OA
BRANCH  16  18
ATOM     18  CA  PRO     3       5.137 -25.266   8.822  1.00  0.00     0.165 C 
ATOM     19  N   PRO     3       5.282 -26.549   9.542  1.00  0.00    -0.312 N 
ATOM     20  CD  PRO     3       4.903 -27.671   8.645  1.00  0.00     0.105 C 
ATOM     21  C   ASP     2       5.827 -26.667  10.767  1.00  0.00     0.257 C 
ATOM     22  CG  PRO     3       4.729 -27.012   7.267  1.00  0.00     0.027 C 
ATOM     23  CB  PRO     3       4.283 -25.591   7.598  1.00  0.00     0.034 C 
ATOM     24  O   ASP     2       6.437 -25.714  11.274  1.00  0.00    -0.270 OA
BRANCH  21  25
ATOM     25  CA  ASP     2       6.007 -28.070  11.388  1.00  0.00     0.195 C 
BRANCH  25  26
ATOM     26  CB  ASP     2       7.123 -28.956  10.777  1.00  0.00     0.132 C 
BRANCH  26  27
ATOM     27  CG  ASP     2       8.170 -28.084  10.059  1.00  0.00     0.188 C 
ATOM     28  OD2 ASP     2       8.347 -28.342   8.842  1.00  0.00    -0.647 OA
ATOM     29  OD1 ASP     2       9.116 -27.646  10.761  1.00  0.00    -0.647 OA
ENDBRANCH  26  27
ENDBRANCH  25  26
BRANCH  25  30
ATOM     30  N   ASP     2       4.808 -28.908  11.219  1.00  0.00    -0.228 NA
ATOM     31  C   TYR     1       4.778 -30.178  10.887  1.00  0.00     0.289 C 
ATOM     32  O   TYR     1       5.729 -30.959  10.782  1.00  0.00    -0.268 OA
BRANCH  31  33
ATOM     33  CA  TYR     1       3.360 -30.658  10.594  1.00  0.00     0.385 C 
ATOM     34  N   TYR     1       2.428 -29.800  11.345  1.00  0.00     0.626 N 
BRANCH  33  35
ATOM     35  CB  TYR     1       3.151 -30.566   9.084  1.00  0.00     0.075 C 
BRANCH  35  36
ATOM     36  CG  TYR     1       1.685 -30.756   8.667  1.00  0.00    -0.019 A 
ATOM     37  CD2 TYR     1       0.995 -31.922   8.962  1.00  0.00    -0.002 A 
ATOM     38  CE2 TYR     1      -0.363 -32.015   8.696  1.00  0.00     0.027 A 
ATOM     39  CZ  TYR     1      -1.020 -30.927   8.124  1.00  0.00     0.131 A 
ATOM     40  CE1 TYR     1      -0.317 -29.782   7.795  1.00  0.00     0.027 A 
ATOM     41  OH  TYR     1      -2.365 -30.920   8.028  1.00  0.00    -0.190 OA
ATOM     42  CD1 TYR     1       1.040 -29.688   8.060  1.00  0.00    -0.002 A 
ENDBRANCH  35  36
ENDBRANCH  33  35
ENDBRANCH  31  33
ENDBRANCH  25  30
ENDBRANCH  21  25
ENDBRANCH  16  18
ENDBRANCH   9  15
ENDBRANCH   7   9
ENDBRANCH   5   6
BRANCH   5  43
ATOM     43  CB  TYR     5       4.099 -18.119   8.122  1.00  0.00     0.060 C 
BRANCH  43  44
ATOM     44  CG  TYR     5       5.213 -17.107   8.440  1.00  0.00    -0.020 A 
ATOM     45  CD2 TYR     5       4.902 -15.840   8.916  1.00  0.00    -0.002 A 
ATOM     46  CE2 TYR     5       5.917 -14.933   9.208  1.00  0.00     0.027 A 
ATOM     47  CZ  TYR     5       7.243 -15.294   9.024  1.00  0.00     0.131 A 
ATOM     48  CE1 TYR     5       7.563 -16.567   8.565  1.00  0.00     0.027 A 
ATOM     49  OH  TYR     5       8.224 -14.378   9.172  1.00  0.00    -0.190 OA
ATOM     50  CD1 TYR     5       6.544 -17.471   8.265  1.00  0.00    -0.002 A 
ENDBRANCH  43  44
ENDBRANCH   5  43
ENDBRANCH   3   5
ENDBRANCH   1   2
BRANCH   1  51
ATOM     51  CB  ARG     6      -1.069 -19.084   8.727  1.00  0.00     0.036 C 
BRANCH  51  52
ATOM     52  CG  ARG     6      -2.324 -19.453   9.520  1.00  0.00     0.029 C 
BRANCH  52  53
ATOM     53  CD  ARG     6      -2.129 -20.789  10.232  1.00  0.00     0.145 C 
BRANCH  53  54
ATOM     54  NE  ARG     6      -2.225 -21.911   9.284  1.00  0.00    -0.083 NA
ATOM     55  CZ  ARG     6      -3.165 -22.876   9.308  1.00  0.00     0.782 C 
ATOM     56  NH2 ARG     6      -3.110 -23.897   8.450  1.00  0.00     0.063 N 
ATOM     57  NH1 ARG     6      -4.109 -22.870  10.242  1.00  0.00     0.063 N 
ENDBRANCH  53  54
ENDBRANCH  52  53
ENDBRANCH  51  52
ENDBRANCH   1  51
BRANCH   1  58
ATOM     58  C   ARG     6      -1.434 -17.111  10.138  1.00  0.00     0.274 C 
ATOM     59  N   ASN     7      -2.374 -16.260   9.737  1.00  0.00    -0.228 NA
ATOM     60  O   ARG     6      -1.239 -17.452  11.306  1.00  0.00    -0.268 OA
BRANCH  59  61
ATOM     61  CA  ASN     7      -3.388 -15.681  10.642  1.00  0.00     0.196 C 
BRANCH  61  62
ATOM     62  C   ASN     7      -4.785 -15.661   9.990  1.00  0.00     0.275 C 
ATOM     63  N   PHE     8      -5.689 -14.823  10.518  1.00  0.00    -0.228 NA
ATOM     64  O   ASN     7      -4.871 -16.082   8.853  1.00  0.00    -0.268 OA
BRANCH  63  65
ATOM     65  CA  PHE     8      -7.053 -14.598   9.979  1.00  0.00     0.191 C 
BRANCH  65  66
ATOM     66  CB  PHE     8      -6.923 -14.080   8.540  1.00  0.00     0.060 C 
BRANCH  66  67
ATOM     67  CG  PHE     8      -6.833 -12.547   8.422  1.00  0.00    -0.020 A 
ATOM     68  CD1 PHE     8      -7.657 -11.871   7.532  1.00  0.00    -0.004 A 
ATOM     69  CE1 PHE     8      -7.504 -10.497   7.352  1.00  0.00    -0.000 A 
ATOM     70  CZ  PHE     8      -6.541  -9.811   8.073  1.00  0.00    -0.000 A 
ATOM     71  CE2 PHE     8      -5.723 -10.483   8.975  1.00  0.00    -0.000 A 
ATOM     72  CD2 PHE     8      -5.876 -11.858   9.156  1.00  0.00    -0.004 A 
ENDBRANCH  66  67
ENDBRANCH  65  66
BRANCH  65  73
ATOM     73  C   PHE     8      -7.997 -15.819  10.063  1.00  0.00     0.275 C 
ATOM     74  N   TRP     9      -8.694 -16.107   8.962  1.00  0.00    -0.228 NA
ATOM     75  O   PHE     8      -8.275 -16.332  11.149  1.00  0.00    -0.268 OA
BRANCH  74  76
ATOM     76  CA  TRP     9      -9.542 -17.321   8.862  1.00  0.00     0.191 C 
BRANCH  76  77
ATOM     77  CB  TRP     9     -10.607 -17.093   7.777  1.00  0.00     0.062 C 
BRANCH  77  78
ATOM     78  CG  TRP     9     -11.885 -16.451   8.314  1.00  0.00     0.001 A 
ATOM     79  CD1 TRP     9     -12.047 -15.165   8.613  1.00  0.00     0.095 A 
ATOM     80  NE1 TRP     9     -13.159 -15.006   9.320  1.00  0.00    -0.244 NA
ATOM     81  CE2 TRP     9     -13.753 -16.178   9.481  1.00  0.00     0.081 A 
ATOM     82  CD2 TRP     9     -12.964 -17.136   8.863  1.00  0.00     0.015 A 
ATOM     83  CZ2 TRP     9     -14.877 -16.579  10.203  1.00  0.00     0.019 A 
ATOM     84  CE3 TRP     9     -13.271 -18.485   8.968  1.00  0.00     0.001 A 
ATOM     85  CZ3 TRP     9     -14.384 -18.887   9.699  1.00  0.00     0.000 A 
ATOM     86  CH2 TRP     9     -15.195 -17.926  10.299  1.00  0.00     0.002 A 
ENDBRANCH  77  78
ENDBRANCH  76  77
BRANCH  76  87
ATOM     87  C   TRP     9      -8.759 -18.632   8.625  1.00  0.00     0.275 C 
ATOM     88  O   TRP     9      -7.532 -18.640   8.615  1.00  0.00    -0.268 OA
ATOM     89  N   GLY    10      -9.487 -19.744   8.538  1.00  0.00    -0.226 NA
BRANCH  89  90
ATOM     90  CA  GLY    10      -8.918 -21.108   8.355  1.00  0.00     0.218 C 
BRANCH  90  91
ATOM     91  C   GLY    10      -9.727 -22.271   8.951  1.00  0.00     0.277 C 
ATOM     92  N   CYS    11     -10.517 -22.908   8.088  1.00  0.00    -0.228 NA
ATOM     93  O   GLY    10      -9.753 -22.456  10.162  1.00  0.00    -0.268 OA
BRANCH  92  94
ATOM     94  CA  CYS    11     -11.384 -24.071   8.380  1.00  0.00     0.198 C 
BRANCH  94  95
ATOM     95  C   CYS    11     -10.525 -25.346   8.277  1.00  0.00     0.275 C 
ATOM     96  O   CYS    11     -10.936 -26.385   8.784  1.00  0.00    -0.268 OA
ATOM     97  N   GLY    12      -9.295 -25.183   7.813  1.00  0.00    -0.225 NA
BRANCH  97  98
ATOM     98  CA  GLY    12      -8.339 -26.292   7.666  1.00  0.00     0.226 C 
BRANCH  98  99
ATOM     99  C   GLY    12      -7.014 -25.874   8.345  1.00  0.00     0.211 C 
ATOM    100  O1  GLY    12      -6.973 -24.719   8.838  1.00  0.00    -0.646 OA
ATOM    101  O2  GLY    12      -6.096 -26.713   8.390  1.00  0.00    -0.646 OA
ENDBRANCH  98  99
ENDBRANCH  97  98
ENDBRANCH  94  95
BRANCH  94 102
ATOM    102  CB  CYS    11     -12.458 -24.210   7.302  1.00  0.00     0.103 C 
ATOM    103  SG  CYS    11     -14.132 -23.606   7.747  1.00  0.00    -0.080 SA
ENDBRANCH  94 102
ENDBRANCH  92  94
ENDBRANCH  90  91
ENDBRANCH  89  90
ENDBRANCH  76  87
ENDBRANCH  74  76
ENDBRANCH  65  73
ENDBRANCH  63  65
ENDBRANCH  61  62
BRANCH  61 104
ATOM    104  CB  ASN     7      -2.983 -14.276  11.106  1.00  0.00     0.126 C 
BRANCH 104 105
ATOM    105  CG  ASN     7      -2.377 -13.382  10.009  1.00  0.00     0.276 C 
ATOM    106  ND2 ASN     7      -1.105 -13.084  10.146  1.00  0.00    -0.107 N 
ATOM    107  OD1 ASN     7      -3.015 -12.817   9.130  1.00  0.00    -0.269 OA
ENDBRANCH 104 105
ENDBRANCH  61 104
ENDBRANCH  59  61
ENDBRANCH   1  58
TORSDOF 42
ENDMDL
MODEL 6
REMARK VINA RESULT:      -2.4      6.752     20.603
REMARK WARNING: 32 MAX_TORS EXCEEDED!!!
REMARK  42 active torsions:
REMARK  status: ('A' for Active; 'I' for Inactive)
REMARK    1  A    between atoms: CA_2  and  CB_3 
REMARK    2  A    between atoms: CA_2  and  C_11 
REMARK    3  A    between atoms: CB_3  and  CG_4 
REMARK       I    between atoms: C_11  and  N_13 
REMARK    4  A    between atoms: N_13  and  CA_14 
REMARK    5  A    between atoms: CA_14  and  CB_15 
REMARK    6  A    between atoms: CA_14  and  C_19 
REMARK    7  A    between atoms: CB_15  and  CG_16 
REMARK       I    between atoms: C_19  and  N_21 
REMARK    8  A    between atoms: CA_22  and  C_26 
REMARK       I    between atoms: C_26  and  N_28 
REMARK    9  A    between atoms: N_28  and  CA_29 
REMARK   10  A    between atoms: CA_29  and  C_35 
REMARK   11  A    between atoms: CA_29  and  CB_30 
REMARK   12  A    between atoms: CB_30  and  CG_31 
REMARK   13  A    between atoms: CG_31  and  CD_32 
REMARK       I    between atoms: C_35  and  N_37 
REMARK   14  A    between atoms: N_37  and  CA_38 
REMARK   15  A    between atoms: CA_38  and  CB_39 
REMARK   16  A    between atoms: CA_38  and  C_47 
REMARK   17  A    between atoms: CB_39  and  CG_40 
REMARK       I    between atoms: C_47  and  N_49 
REMARK   18  A    between atoms: N_49  and  CA_50 
REMARK   19  A    between atoms: CA_50  and  CB_51 
REMARK   20  A    between atoms: CA_50  and  C_58 
REMARK   21  A    between atoms: CB_51  and  CG_52 
REMARK   22  A    between atoms: CG_52  and  CD_53 
REMARK   23  A    between atoms: CD_53  and  NE_54 
REMARK       I    between atoms: C_58  and  N_60 
REMARK   24  A    between atoms: N_60  and  CA_61 
REMARK   25  A    between atoms: CA_61  and  C_66 
REMARK   26  A    between atoms: CA_61  and  CB_62 
REMARK   27  A    between atoms: CB_62  and  CG_63 
REMARK       I    between atoms: C_66  and  N_68 
REMARK   28  A    between atoms: N_68  and  CA_69 
REMARK   29  A    between atoms: CA_69  and  CB_70 
REMARK   30  A    between atoms: CA_69  and  C_77 
REMARK   31  A    between atoms: CB_70  and  CG_71 
REMARK       I    between atoms: C_77  and  N_79 
REMARK   32  A    between atoms: N_79  and  CA_80 
REMARK   33  A    between atoms: CA_80  and  CB_81 
REMARK   34  A    between atoms: CA_80  and  C_91 
REMARK   35  A    between atoms: CB_81  and  CG_82 
REMARK       I    between atoms: C_91  and  N_93 
REMARK   36  A    between atoms: N_93  and  CA_94 
REMARK   37  A    between atoms: CA_94  and  C_95 
REMARK       I    between atoms: C_95  and  N_97 
REMARK   38  A    between atoms: N_97  and  CA_98 
REMARK   39  A    between atoms: CA_98  and  C_101 
REMARK   40  A    between atoms: CA_98  and  CB_99 
REMARK       I    between atoms: C_101  and  N_103 
REMARK   41  A    between atoms: N_103  and  CA_104 
REMARK   42  A    between atoms: CA_104  and  C_105 
ROOT
ATOM      1  CA  ARG     6       0.761 -18.549   9.165  1.00  0.00     0.186 C 
ENDROOT
BRANCH   1   2
ATOM      2  N   ARG     6       1.971 -19.084   9.831  1.00  0.00    -0.229 NA
ATOM      3  C   TYR     5       2.757 -20.005   9.259  1.00  0.00     0.275 C 
ATOM      4  O   TYR     5       2.541 -20.446   8.129  1.00  0.00    -0.268 OA
BRANCH   3   5
ATOM      5  CA  TYR     5       4.023 -20.420  10.026  1.00  0.00     0.191 C 
BRANCH   5   6
ATOM      6  N   TYR     5       3.986 -21.822  10.517  1.00  0.00    -0.228 NA
ATOM      7  C   GLU     4       4.235 -22.882   9.730  1.00  0.00     0.274 C 
ATOM      8  O   GLU     4       4.649 -22.771   8.583  1.00  0.00    -0.268 OA
BRANCH   7   9
ATOM      9  CA  GLU     4       4.291 -24.252  10.437  1.00  0.00     0.187 C 
BRANCH   9  10
ATOM     10  CB  GLU     4       5.669 -24.445  11.092  1.00  0.00     0.045 C 
BRANCH  10  11
ATOM     11  CG  GLU     4       6.895 -24.134  10.206  1.00  0.00     0.100 C 
BRANCH  11  12
ATOM     12  CD  GLU     4       7.980 -25.210  10.234  1.00  0.00     0.185 C 
ATOM     13  OE1 GLU     4       7.606 -26.410  10.177  1.00  0.00    -0.647 OA
ATOM     14  OE2 GLU     4       9.064 -24.899  10.769  1.00  0.00    -0.647 OA
ENDBRANCH  11  12
ENDBRANCH  10  11
ENDBRANCH   9  10
BRANCH   9  15
ATOM     15  N   GLU     4       4.038 -25.387   9.529  1.00  0.00    -0.229 NA
ATOM     16  C   PRO     3       3.198 -26.401   9.698  1.00  0.00     0.272 C 
ATOM     17  O   PRO     3       2.233 -26.359  10.462  1.00  0.00    -0.269 OA
BRANCH  16  18
ATOM     18  CA  PRO     3       3.172 -27.425   8.561  1.00  0.00     0.165 C 
ATOM     19  N   PRO     3       3.557 -28.798   8.952  1.00  0.00    -0.312 N 
ATOM     20  CD  PRO     3       2.674 -29.777   8.269  1.00  0.00     0.105 C 
ATOM     21  C   ASP     2       4.644 -29.092   9.688  1.00  0.00     0.257 C 
ATOM     22  CG  PRO     3       1.871 -28.931   7.269  1.00  0.00     0.027 C 
ATOM     23  CB  PRO     3       1.785 -27.562   7.938  1.00  0.00     0.034 C 
ATOM     24  O   ASP     2       5.509 -28.229   9.902  1.00  0.00    -0.270 OA
BRANCH  21  25
ATOM     25  CA  ASP     2       4.998 -30.571   9.964  1.00  0.00     0.195 C 
BRANCH  25  26
ATOM     26  CB  ASP     2       4.697 -31.097  11.391  1.00  0.00     0.132 C 
BRANCH  26  27
ATOM     27  CG  ASP     2       3.561 -32.136  11.353  1.00  0.00     0.188 C 
ATOM     28  OD2 ASP     2       3.928 -33.339  11.325  1.00  0.00    -0.647 OA
ATOM     29  OD1 ASP     2       2.492 -31.784  10.795  1.00  0.00    -0.647 OA
ENDBRANCH  26  27
ENDBRANCH  25  26
BRANCH  25  30
ATOM     30  N   ASP     2       6.441 -30.830   9.827  1.00  0.00    -0.228 NA
ATOM     31  C   TYR     1       7.005 -31.958   9.461  1.00  0.00     0.289 C 
ATOM     32  O   TYR     1       6.457 -32.977   9.029  1.00  0.00    -0.268 OA
BRANCH  31  33
ATOM     33  CA  TYR     1       8.519 -31.925   9.641  1.00  0.00     0.385 C 
ATOM     34  N   TYR     1       9.117 -31.510   8.361  1.00  0.00     0.626 N 
BRANCH  33  35
ATOM     35  CB  TYR     1       8.821 -30.944  10.772  1.00  0.00     0.075 C 
BRANCH  35  36
ATOM     36  CG  TYR     1      10.324 -30.799  11.056  1.00  0.00    -0.019 A 
ATOM     37  CD2 TYR     1      11.171 -31.896  11.042  1.00  0.00    -0.002 A 
ATOM     38  CE2 TYR     1      12.541 -31.721  11.167  1.00  0.00     0.027 A 
ATOM     39  CZ  TYR     1      13.052 -30.432  11.313  1.00  0.00     0.131 A 
ATOM     40  CE1 TYR     1      12.198 -29.345  11.367  1.00  0.00     0.027 A 
ATOM     41  OH  TYR     1      14.381 -30.218  11.248  1.00  0.00    -0.190 OA
ATOM     42  CD1 TYR     1      10.828 -29.520  11.243  1.00  0.00    -0.002 A 
ENDBRANCH  35  36
ENDBRANCH  33  35
ENDBRANCH  31  33
ENDBRANCH  25  30
ENDBRANCH  21  25
ENDBRANCH  16  18
ENDBRANCH   9  15
ENDBRANCH   7   9
ENDBRANCH   5   6
BRANCH   5  43
ATOM     43  CB  TYR     5       5.282 -20.194   9.172  1.00  0.00     0.060 C 
BRANCH  43  44
ATOM     44  CG  TYR     5       5.639 -18.703   9.043  1.00  0.00    -0.020 A 
ATOM     45  CD2 TYR     5       6.734 -18.178   9.718  1.00  0.00    -0.002 A 
ATOM     46  CE2 TYR     5       7.053 -16.829   9.589  1.00  0.00     0.027 A 
ATOM     47  CZ  TYR     5       6.278 -16.007   8.786  1.00  0.00     0.131 A 
ATOM     48  CE1 TYR     5       5.192 -16.529   8.093  1.00  0.00     0.027 A 
ATOM     49  OH  TYR     5       6.497 -14.674   8.766  1.00  0.00    -0.190 OA
ATOM     50  CD1 TYR     5       4.868 -17.879   8.231  1.00  0.00    -0.002 A 
ENDBRANCH  43  44
ENDBRANCH   5  43
ENDBRANCH   3   5
ENDBRANCH   1   2
BRANCH   1  51
ATOM     51  CB  ARG     6       0.223 -19.474   8.078  1.00  0.00     0.036 C 
BRANCH  51  52
ATOM     52  CG  ARG     6      -1.127 -20.107   8.421  1.00  0.00     0.029 C 
BRANCH  52  53
ATOM     53  CD  ARG     6      -1.184 -21.545   7.913  1.00  0.00     0.145 C 
BRANCH  53  54
ATOM     54  NE  ARG     6      -1.643 -22.460   8.971  1.00  0.00    -0.083 NA
ATOM     55  CZ  ARG     6      -2.503 -23.482   8.801  1.00  0.00     0.782 C 
ATOM     56  NH2 ARG     6      -2.919 -24.200   9.847  1.00  0.00     0.063 N 
ATOM     57  NH1 ARG     6      -3.017 -23.734   7.602  1.00  0.00     0.063 N 
ENDBRANCH  53  54
ENDBRANCH  52  53
ENDBRANCH  51  52
ENDBRANCH   1  51
BRANCH   1  58
ATOM     58  C   ARG     6      -0.393 -18.311  10.148  1.00  0.00     0.274 C 
ATOM     59  N   ASN     7      -1.259 -17.362   9.802  1.00  0.00    -0.228 NA
ATOM     60  O   ARG     6      -0.455 -18.985  11.177  1.00  0.00    -0.268 OA
BRANCH  59  61
ATOM     61  CA  ASN     7      -2.484 -17.059  10.570  1.00  0.00     0.196 C 
BRANCH  61  62
ATOM     62  C   ASN     7      -3.755 -17.337   9.744  1.00  0.00     0.275 C 
ATOM     63  N   PHE     8      -4.901 -16.803  10.193  1.00  0.00    -0.228 NA
ATOM     64  O   ASN     7      -3.601 -17.667   8.584  1.00  0.00    -0.268 OA
BRANCH  63  65
ATOM     65  CA  PHE     8      -6.207 -16.885   9.495  1.00  0.00     0.191 C 
BRANCH  65  66
ATOM     66  CB  PHE     8      -6.004 -16.432   8.042  1.00  0.00     0.060 C 
BRANCH  66  67
ATOM     67  CG  PHE     8      -6.543 -15.022   7.735  1.00  0.00    -0.020 A 
ATOM     68  CD1 PHE     8      -5.698 -13.925   7.814  1.00  0.00    -0.004 A 
ATOM     69  CE1 PHE     8      -6.209 -12.640   7.636  1.00  0.00    -0.000 A 
ATOM     70  CZ  PHE     8      -7.557 -12.467   7.365  1.00  0.00    -0.000 A 
ATOM     71  CE2 PHE     8      -8.404 -13.567   7.271  1.00  0.00    -0.000 A 
ATOM     72  CD2 PHE     8      -7.892 -14.852   7.450  1.00  0.00    -0.004 A 
ENDBRANCH  66  67
ENDBRANCH  65  66
BRANCH  65  73
ATOM     73  C   PHE     8      -6.902 -18.263   9.571  1.00  0.00     0.275 C 
ATOM     74  N   TRP     9      -7.925 -18.459   8.738  1.00  0.00    -0.228 NA
ATOM     75  O   PHE     8      -6.688 -19.030  10.514  1.00  0.00    -0.268 OA
BRANCH  74  76
ATOM     76  CA  TRP     9      -8.602 -19.774   8.617  1.00  0.00     0.191 C 
BRANCH  76  77
ATOM     77  CB  TRP     9      -9.702 -19.669   7.548  1.00  0.00     0.062 C 
BRANCH  77  78
ATOM     78  CG  TRP     9     -11.060 -19.264   8.119  1.00  0.00     0.001 A 
ATOM     79  CD1 TRP     9     -12.059 -20.089   8.418  1.00  0.00     0.095 A 
ATOM     80  NE1 TRP     9     -13.174 -19.395   8.605  1.00  0.00    -0.244 NA
ATOM     81  CE2 TRP     9     -12.922 -18.103   8.452  1.00  0.00     0.081 A 
ATOM     82  CD2 TRP     9     -11.581 -17.974   8.125  1.00  0.00     0.015 A 
ATOM     83  CZ2 TRP     9     -13.739 -16.973   8.452  1.00  0.00     0.019 A 
ATOM     84  CE3 TRP     9     -11.048 -16.740   7.784  1.00  0.00     0.001 A 
ATOM     85  CZ3 TRP     9     -11.864 -15.614   7.771  1.00  0.00     0.000 A 
ATOM     86  CH2 TRP     9     -13.207 -15.735   8.124  1.00  0.00     0.002 A 
ENDBRANCH  77  78
ENDBRANCH  76  77
BRANCH  76  87
ATOM     87  C   TRP     9      -7.652 -20.962   8.344  1.00  0.00     0.275 C 
ATOM     88  O   TRP     9      -6.541 -21.013   8.863  1.00  0.00    -0.268 OA
ATOM     89  N   GLY    10      -8.149 -21.954   7.606  1.00  0.00    -0.226 NA
BRANCH  89  90
ATOM     90  CA  GLY    10      -7.408 -23.201   7.270  1.00  0.00     0.218 C 
BRANCH  90  91
ATOM     91  C   GLY    10      -8.081 -24.524   7.670  1.00  0.00     0.277 C 
ATOM     92  N   CYS    11      -7.243 -25.503   8.005  1.00  0.00    -0.228 NA
ATOM     93  O   GLY    10      -9.286 -24.683   7.511  1.00  0.00    -0.268 OA
BRANCH  92  94
ATOM     94  CA  CYS    11      -7.612 -26.866   8.451  1.00  0.00     0.198 C 
BRANCH  94  95
ATOM     95  C   CYS    11      -8.725 -26.738   9.509  1.00  0.00     0.275 C 
ATOM     96  O   CYS    11      -8.454 -26.260  10.605  1.00  0.00    -0.268 OA
ATOM     97  N   GLY    12      -9.869 -27.344   9.226  1.00  0.00    -0.225 NA
BRANCH  97  98
ATOM     98  CA  GLY    12     -11.028 -27.334  10.132  1.00  0.00     0.226 C 
BRANCH  98  99
ATOM     99  C   GLY    12     -11.419 -28.801  10.423  1.00  0.00     0.211 C 
ATOM    100  O1  GLY    12     -10.490 -29.575  10.766  1.00  0.00    -0.646 OA
ATOM    101  O2  GLY    12     -12.622 -29.109  10.335  1.00  0.00    -0.646 OA
ENDBRANCH  98  99
ENDBRANCH  97  98
ENDBRANCH  94  95
BRANCH  94 102
ATOM    102  CB  CYS    11      -6.434 -27.521   9.169  1.00  0.00     0.103 C 
ATOM    103  SG  CYS    11      -5.078 -28.140   8.100  1.00  0.00    -0.080 SA
ENDBRANCH  94 102
ENDBRANCH  92  94
ENDBRANCH  90  91
ENDBRANCH  89  90
ENDBRANCH  76  87
ENDBRANCH  74  76
ENDBRANCH  65  73
ENDBRANCH  63  65
ENDBRANCH  61  62
BRANCH  61 104
ATOM    104  CB  ASN     7      -2.474 -15.614  11.086  1.00  0.00     0.126 C 
BRANCH 104 105
ATOM    105  CG  ASN     7      -1.984 -14.567  10.068  1.00  0.00     0.276 C 
ATOM    106  ND2 ASN     7      -2.858 -14.192   9.161  1.00  0.00    -0.107 N 
ATOM    107  OD1 ASN     7      -0.826 -14.189   9.951  1.00  0.00    -0.269 OA
ENDBRANCH 104 105
ENDBRANCH  61 104
ENDBRANCH  59  61
ENDBRANCH   1  58
TORSDOF 42
ENDMDL
MODEL 7
REMARK VINA RESULT:      -2.3     30.947     41.188
REMARK WARNING: 32 MAX_TORS EXCEEDED!!!
REMARK  42 active torsions:
REMARK  status: ('A' for Active; 'I' for Inactive)
REMARK    1  A    between atoms: CA_2  and  CB_3 
REMARK    2  A    between atoms: CA_2  and  C_11 
REMARK    3  A    between atoms: CB_3  and  CG_4 
REMARK       I    between atoms: C_11  and  N_13 
REMARK    4  A    between atoms: N_13  and  CA_14 
REMARK    5  A    between atoms: CA_14  and  CB_15 
REMARK    6  A    between atoms: CA_14  and  C_19 
REMARK    7  A    between atoms: CB_15  and  CG_16 
REMARK       I    between atoms: C_19  and  N_21 
REMARK    8  A    between atoms: CA_22  and  C_26 
REMARK       I    between atoms: C_26  and  N_28 
REMARK    9  A    between atoms: N_28  and  CA_29 
REMARK   10  A    between atoms: CA_29  and  C_35 
REMARK   11  A    between atoms: CA_29  and  CB_30 
REMARK   12  A    between atoms: CB_30  and  CG_31 
REMARK   13  A    between atoms: CG_31  and  CD_32 
REMARK       I    between atoms: C_35  and  N_37 
REMARK   14  A    between atoms: N_37  and  CA_38 
REMARK   15  A    between atoms: CA_38  and  CB_39 
REMARK   16  A    between atoms: CA_38  and  C_47 
REMARK   17  A    between atoms: CB_39  and  CG_40 
REMARK       I    between atoms: C_47  and  N_49 
REMARK   18  A    between atoms: N_49  and  CA_50 
REMARK   19  A    between atoms: CA_50  and  CB_51 
REMARK   20  A    between atoms: CA_50  and  C_58 
REMARK   21  A    between atoms: CB_51  and  CG_52 
REMARK   22  A    between atoms: CG_52  and  CD_53 
REMARK   23  A    between atoms: CD_53  and  NE_54 
REMARK       I    between atoms: C_58  and  N_60 
REMARK   24  A    between atoms: N_60  and  CA_61 
REMARK   25  A    between atoms: CA_61  and  C_66 
REMARK   26  A    between atoms: CA_61  and  CB_62 
REMARK   27  A    between atoms: CB_62  and  CG_63 
REMARK       I    between atoms: C_66  and  N_68 
REMARK   28  A    between atoms: N_68  and  CA_69 
REMARK   29  A    between atoms: CA_69  and  CB_70 
REMARK   30  A    between atoms: CA_69  and  C_77 
REMARK   31  A    between atoms: CB_70  and  CG_71 
REMARK       I    between atoms: C_77  and  N_79 
REMARK   32  A    between atoms: N_79  and  CA_80 
REMARK   33  A    between atoms: CA_80  and  CB_81 
REMARK   34  A    between atoms: CA_80  and  C_91 
REMARK   35  A    between atoms: CB_81  and  CG_82 
REMARK       I    between atoms: C_91  and  N_93 
REMARK   36  A    between atoms: N_93  and  CA_94 
REMARK   37  A    between atoms: CA_94  and  C_95 
REMARK       I    between atoms: C_95  and  N_97 
REMARK   38  A    between atoms: N_97  and  CA_98 
REMARK   39  A    between atoms: CA_98  and  C_101 
REMARK   40  A    between atoms: CA_98  and  CB_99 
REMARK       I    between atoms: C_101  and  N_103 
REMARK   41  A    between atoms: N_103  and  CA_104 
REMARK   42  A    between atoms: CA_104  and  C_105 
ROOT
ATOM      1  CA  ARG     6      -7.992  12.228   9.742  1.00  0.00     0.186 C 
ENDROOT
BRANCH   1   2
ATOM      2  N   ARG     6      -7.748  10.818   9.357  1.00  0.00    -0.229 NA
ATOM      3  C   TYR     5      -7.214  10.478   8.177  1.00  0.00     0.275 C 
ATOM      4  O   TYR     5      -6.864  11.317   7.346  1.00  0.00    -0.268 OA
BRANCH   3   5
ATOM      5  CA  TYR     5      -6.945   8.984   7.934  1.00  0.00     0.191 C 
BRANCH   5   6
ATOM      6  N   TYR     5      -5.514   8.673   7.681  1.00  0.00    -0.228 NA
ATOM      7  C   GLU     4      -4.531   8.993   8.539  1.00  0.00     0.274 C 
ATOM      8  O   GLU     4      -4.750   9.440   9.658  1.00  0.00    -0.268 OA
BRANCH   7   9
ATOM      9  CA  GLU     4      -3.124   8.470   8.183  1.00  0.00     0.187 C 
BRANCH   9  10
ATOM     10  CB  GLU     4      -2.869   7.133   8.898  1.00  0.00     0.045 C 
BRANCH  10  11
ATOM     11  CG  GLU     4      -1.734   6.257   8.324  1.00  0.00     0.100 C 
BRANCH  11  12
ATOM     12  CD  GLU     4      -1.343   5.074   9.209  1.00  0.00     0.185 C 
ATOM     13  OE1 GLU     4      -0.845   5.336  10.336  1.00  0.00    -0.647 OA
ATOM     14  OE2 GLU     4      -1.092   3.998   8.630  1.00  0.00    -0.647 OA
ENDBRANCH  11  12
ENDBRANCH  10  11
ENDBRANCH   9  10
BRANCH   9  15
ATOM     15  N   GLU     4      -2.045   9.409   8.543  1.00  0.00    -0.229 NA
ATOM     16  C   PRO     3      -1.585   9.706   9.752  1.00  0.00     0.272 C 
ATOM     17  O   PRO     3      -1.734   8.973  10.731  1.00  0.00    -0.269 OA
BRANCH  16  18
ATOM     18  CA  PRO     3      -0.450  10.731   9.786  1.00  0.00     0.165 C 
ATOM     19  N   PRO     3       0.743  10.363   8.994  1.00  0.00    -0.312 N 
ATOM     20  CD  PRO     3       1.268  11.563   8.294  1.00  0.00     0.105 C 
ATOM     21  C   ASP     2       1.335   9.155   9.043  1.00  0.00     0.257 C 
ATOM     22  CG  PRO     3       0.456  12.729   8.880  1.00  0.00     0.027 C 
ATOM     23  CB  PRO     3      -0.882  12.092   9.246  1.00  0.00     0.034 C 
ATOM     24  O   ASP     2       1.029   8.344   9.930  1.00  0.00    -0.270 OA
BRANCH  21  25
ATOM     25  CA  ASP     2       2.629   8.909   8.236  1.00  0.00     0.195 C 
BRANCH  25  26
ATOM     26  CB  ASP     2       2.630   7.677   7.294  1.00  0.00     0.132 C 
BRANCH  26  27
ATOM     27  CG  ASP     2       2.889   6.388   8.096  1.00  0.00     0.188 C 
ATOM     28  OD2 ASP     2       4.071   5.960   8.066  1.00  0.00    -0.647 OA
ATOM     29  OD1 ASP     2       1.926   5.589   8.206  1.00  0.00    -0.647 OA
ENDBRANCH  26  27
ENDBRANCH  25  26
BRANCH  25  30
ATOM     30  N   ASP     2       3.785   8.642   9.110  1.00  0.00    -0.228 NA
ATOM     31  C   TYR     1       4.485   9.530   9.777  1.00  0.00     0.289 C 
ATOM     32  O   TYR     1       4.248  10.733   9.922  1.00  0.00    -0.268 OA
BRANCH  31  33
ATOM     33  CA  TYR     1       5.737   8.919  10.399  1.00  0.00     0.385 C 
ATOM     34  N   TYR     1       5.306   7.921  11.392  1.00  0.00     0.626 N 
BRANCH  33  35
ATOM     35  CB  TYR     1       6.553   8.301   9.266  1.00  0.00     0.075 C 
BRANCH  35  36
ATOM     36  CG  TYR     1       8.052   8.207   9.587  1.00  0.00    -0.019 A 
ATOM     37  CD2 TYR     1       8.535   7.313  10.530  1.00  0.00    -0.002 A 
ATOM     38  CE2 TYR     1       9.902   7.153  10.703  1.00  0.00     0.027 A 
ATOM     39  CZ  TYR     1      10.779   7.906   9.925  1.00  0.00     0.131 A 
ATOM     40  CE1 TYR     1      10.290   8.827   9.015  1.00  0.00     0.027 A 
ATOM     41  OH  TYR     1      12.100   7.637   9.939  1.00  0.00    -0.190 OA
ATOM     42  CD1 TYR     1       8.924   8.987   8.842  1.00  0.00    -0.002 A 
ENDBRANCH  35  36
ENDBRANCH  33  35
ENDBRANCH  31  33
ENDBRANCH  25  30
ENDBRANCH  21  25
ENDBRANCH  16  18
ENDBRANCH   9  15
ENDBRANCH   7   9
ENDBRANCH   5   6
BRANCH   5  43
ATOM     43  CB  TYR     5      -7.471   8.134   9.102  1.00  0.00     0.060 C 
BRANCH  43  44
ATOM     44  CG  TYR     5      -7.498   6.633   8.766  1.00  0.00    -0.020 A 
ATOM     45  CD2 TYR     5      -8.171   6.172   7.643  1.00  0.00    -0.002 A 
ATOM     46  CE2 TYR     5      -8.183   4.813   7.343  1.00  0.00     0.027 A 
ATOM     47  CZ  TYR     5      -7.522   3.916   8.167  1.00  0.00     0.131 A 
ATOM     48  CE1 TYR     5      -6.830   4.371   9.284  1.00  0.00     0.027 A 
ATOM     49  OH  TYR     5      -7.644   2.586   7.963  1.00  0.00    -0.190 OA
ATOM     50  CD1 TYR     5      -6.827   5.733   9.587  1.00  0.00    -0.002 A 
ENDBRANCH  43  44
ENDBRANCH   5  43
ENDBRANCH   3   5
ENDBRANCH   1   2
BRANCH   1  51
ATOM     51  CB  ARG     6      -6.767  13.116   9.549  1.00  0.00     0.036 C 
BRANCH  51  52
ATOM     52  CG  ARG     6      -6.203  13.676  10.857  1.00  0.00     0.029 C 
BRANCH  52  53
ATOM     53  CD  ARG     6      -6.416  15.186  10.925  1.00  0.00     0.145 C 
BRANCH  53  54
ATOM     54  NE  ARG     6      -5.199  15.870  11.392  1.00  0.00    -0.083 NA
ATOM     55  CZ  ARG     6      -4.126  16.161  10.633  1.00  0.00     0.782 C 
ATOM     56  NH2 ARG     6      -3.039  16.711  11.178  1.00  0.00     0.063 N 
ATOM     57  NH1 ARG     6      -4.103  15.825   9.348  1.00  0.00     0.063 N 
ENDBRANCH  53  54
ENDBRANCH  52  53
ENDBRANCH  51  52
ENDBRANCH   1  51
BRANCH   1  58
ATOM     58  C   ARG     6      -9.129  12.868   8.935  1.00  0.00     0.274 C 
ATOM     59  N   ASN     7     -10.331  12.321   9.098  1.00  0.00    -0.228 NA
ATOM     60  O   ARG     6      -8.880  13.822   8.197  1.00  0.00    -0.268 OA
BRANCH  59  61
ATOM     61  CA  ASN     7     -11.561  12.861   8.482  1.00  0.00     0.196 C 
BRANCH  61  62
ATOM     62  C   ASN     7     -12.444  13.583   9.518  1.00  0.00     0.275 C 
ATOM     63  N   PHE     8     -13.425  14.364   9.041  1.00  0.00    -0.228 NA
ATOM     64  O   ASN     7     -12.465  13.125  10.644  1.00  0.00    -0.268 OA
BRANCH  63  65
ATOM     65  CA  PHE     8     -14.429  15.070   9.875  1.00  0.00     0.191 C 
BRANCH  65  66
ATOM     66  CB  PHE     8     -14.683  16.451   9.255  1.00  0.00     0.060 C 
BRANCH  66  67
ATOM     67  CG  PHE     8     -13.859  17.591   9.882  1.00  0.00    -0.020 A 
ATOM     68  CD1 PHE     8     -13.974  18.882   9.386  1.00  0.00    -0.004 A 
ATOM     69  CE1 PHE     8     -13.153  19.894   9.886  1.00  0.00    -0.000 A 
ATOM     70  CZ  PHE     8     -12.238  19.606  10.885  1.00  0.00    -0.000 A 
ATOM     71  CE2 PHE     8     -12.130  18.315  11.392  1.00  0.00    -0.000 A 
ATOM     72  CD2 PHE     8     -12.951  17.304  10.893  1.00  0.00    -0.004 A 
ENDBRANCH  66  67
ENDBRANCH  65  66
BRANCH  65  73
ATOM     73  C   PHE     8     -15.747  14.296  10.105  1.00  0.00     0.275 C 
ATOM     74  N   TRP     9     -16.050  13.359   9.205  1.00  0.00    -0.228 NA
ATOM     75  O   PHE     8     -16.582  14.696  10.921  1.00  0.00    -0.268 OA
BRANCH  74  76
ATOM     76  CA  TRP     9     -17.218  12.459   9.369  1.00  0.00     0.191 C 
BRANCH  76  77
ATOM     77  CB  TRP     9     -17.782  12.121   7.979  1.00  0.00     0.062 C 
BRANCH  77  78
ATOM     78  CG  TRP     9     -19.287  12.364   7.865  1.00  0.00     0.001 A 
ATOM     79  CD1 TRP     9     -19.891  13.548   7.886  1.00  0.00     0.095 A 
ATOM     80  NE1 TRP     9     -21.196  13.383   8.063  1.00  0.00    -0.244 NA
ATOM     81  CE2 TRP     9     -21.472  12.090   8.140  1.00  0.00     0.081 A 
ATOM     82  CD2 TRP     9     -20.275  11.399   8.031  1.00  0.00     0.015 A 
ATOM     83  CZ2 TRP     9     -22.647  11.387   8.404  1.00  0.00     0.019 A 
ATOM     84  CE3 TRP     9     -20.232  10.022   8.198  1.00  0.00     0.001 A 
ATOM     85  CZ3 TRP     9     -21.401   9.321   8.475  1.00  0.00     0.000 A 
ATOM     86  CH2 TRP     9     -22.610  10.009   8.558  1.00  0.00     0.002 A 
ENDBRANCH  77  78
ENDBRANCH  76  77
BRANCH  76  87
ATOM     87  C   TRP     9     -16.934  11.183  10.194  1.00  0.00     0.275 C 
ATOM     88  O   TRP     9     -17.790  10.709  10.935  1.00  0.00    -0.268 OA
ATOM     89  N   GLY    10     -15.762  10.589   9.974  1.00  0.00    -0.226 NA
BRANCH  89  90
ATOM     90  CA  GLY    10     -15.323   9.331  10.637  1.00  0.00     0.218 C 
BRANCH  90  91
ATOM     91  C   GLY    10     -14.965   8.159   9.708  1.00  0.00     0.277 C 
ATOM     92  N   CYS    11     -14.432   7.101  10.316  1.00  0.00    -0.228 NA
ATOM     93  O   GLY    10     -15.017   8.291   8.490  1.00  0.00    -0.268 OA
BRANCH  92  94
ATOM     94  CA  CYS    11     -14.017   5.833   9.675  1.00  0.00     0.198 C 
BRANCH  94  95
ATOM     95  C   CYS    11     -15.154   4.809   9.859  1.00  0.00     0.275 C 
ATOM     96  O   CYS    11     -16.068   5.067  10.635  1.00  0.00    -0.268 OA
ATOM     97  N   GLY    12     -14.963   3.621   9.306  1.00  0.00    -0.225 NA
BRANCH  97  98
ATOM     98  CA  GLY    12     -15.941   2.526   9.399  1.00  0.00     0.226 C 
BRANCH  98  99
ATOM     99  C   GLY    12     -16.608   2.362   8.014  1.00  0.00     0.211 C 
ATOM    100  O1  GLY    12     -16.694   3.395   7.304  1.00  0.00    -0.646 OA
ATOM    101  O2  GLY    12     -16.980   1.221   7.681  1.00  0.00    -0.646 OA
ENDBRANCH  98  99
ENDBRANCH  97  98
ENDBRANCH  94  95
BRANCH  94 102
ATOM    102  CB  CYS    11     -12.812   5.245  10.406  1.00  0.00     0.103 C 
ATOM    103  SG  CYS    11     -11.445   4.631   9.348  1.00  0.00    -0.080 SA
ENDBRANCH  94 102
ENDBRANCH  92  94
ENDBRANCH  90  91
ENDBRANCH  89  90
ENDBRANCH  76  87
ENDBRANCH  74  76
ENDBRANCH  65  73
ENDBRANCH  63  65
ENDBRANCH  61  62
BRANCH  61 104
ATOM    104  CB  ASN     7     -12.353  11.760   7.764  1.00  0.00     0.126 C 
BRANCH 104 105
ATOM    105  CG  ASN     7     -11.857  10.327   8.032  1.00  0.00     0.276 C 
ATOM    106  ND2 ASN     7     -12.067   9.861   9.242  1.00  0.00    -0.107 N 
ATOM    107  OD1 ASN     7     -11.163   9.669   7.267  1.00  0.00    -0.269 OA
ENDBRANCH 104 105
ENDBRANCH  61 104
ENDBRANCH  59  61
ENDBRANCH   1  58
TORSDOF 42
ENDMDL
MODEL 8
REMARK VINA RESULT:      -2.1      8.323     21.907
REMARK WARNING: 32 MAX_TORS EXCEEDED!!!
REMARK  42 active torsions:
REMARK  status: ('A' for Active; 'I' for Inactive)
REMARK    1  A    between atoms: CA_2  and  CB_3 
REMARK    2  A    between atoms: CA_2  and  C_11 
REMARK    3  A    between atoms: CB_3  and  CG_4 
REMARK       I    between atoms: C_11  and  N_13 
REMARK    4  A    between atoms: N_13  and  CA_14 
REMARK    5  A    between atoms: CA_14  and  CB_15 
REMARK    6  A    between atoms: CA_14  and  C_19 
REMARK    7  A    between atoms: CB_15  and  CG_16 
REMARK       I    between atoms: C_19  and  N_21 
REMARK    8  A    between atoms: CA_22  and  C_26 
REMARK       I    between atoms: C_26  and  N_28 
REMARK    9  A    between atoms: N_28  and  CA_29 
REMARK   10  A    between atoms: CA_29  and  C_35 
REMARK   11  A    between atoms: CA_29  and  CB_30 
REMARK   12  A    between atoms: CB_30  and  CG_31 
REMARK   13  A    between atoms: CG_31  and  CD_32 
REMARK       I    between atoms: C_35  and  N_37 
REMARK   14  A    between atoms: N_37  and  CA_38 
REMARK   15  A    between atoms: CA_38  and  CB_39 
REMARK   16  A    between atoms: CA_38  and  C_47 
REMARK   17  A    between atoms: CB_39  and  CG_40 
REMARK       I    between atoms: C_47  and  N_49 
REMARK   18  A    between atoms: N_49  and  CA_50 
REMARK   19  A    between atoms: CA_50  and  CB_51 
REMARK   20  A    between atoms: CA_50  and  C_58 
REMARK   21  A    between atoms: CB_51  and  CG_52 
REMARK   22  A    between atoms: CG_52  and  CD_53 
REMARK   23  A    between atoms: CD_53  and  NE_54 
REMARK       I    between atoms: C_58  and  N_60 
REMARK   24  A    between atoms: N_60  and  CA_61 
REMARK   25  A    between atoms: CA_61  and  C_66 
REMARK   26  A    between atoms: CA_61  and  CB_62 
REMARK   27  A    between atoms: CB_62  and  CG_63 
REMARK       I    between atoms: C_66  and  N_68 
REMARK   28  A    between atoms: N_68  and  CA_69 
REMARK   29  A    between atoms: CA_69  and  CB_70 
REMARK   30  A    between atoms: CA_69  and  C_77 
REMARK   31  A    between atoms: CB_70  and  CG_71 
REMARK       I    between atoms: C_77  and  N_79 
REMARK   32  A    between atoms: N_79  and  CA_80 
REMARK   33  A    between atoms: CA_80  and  CB_81 
REMARK   34  A    between atoms: CA_80  and  C_91 
REMARK   35  A    between atoms: CB_81  and  CG_82 
REMARK       I    between atoms: C_91  and  N_93 
REMARK   36  A    between atoms: N_93  and  CA_94 
REMARK   37  A    between atoms: CA_94  and  C_95 
REMARK       I    between atoms: C_95  and  N_97 
REMARK   38  A    between atoms: N_97  and  CA_98 
REMARK   39  A    between atoms: CA_98  and  C_101 
REMARK   40  A    between atoms: CA_98  and  CB_99 
REMARK       I    between atoms: C_101  and  N_103 
REMARK   41  A    between atoms: N_103  and  CA_104 
REMARK   42  A    between atoms: CA_104  and  C_105 
ROOT
ATOM      1  CA  ARG     6       1.994 -18.784  10.935  1.00  0.00     0.186 C 
ENDROOT
BRANCH   1   2
ATOM      2  N   ARG     6       1.289 -20.018  10.513  1.00  0.00    -0.229 NA
ATOM      3  C   TYR     5       1.438 -20.548   9.292  1.00  0.00     0.275 C 
ATOM      4  O   TYR     5       2.192 -20.060   8.450  1.00  0.00    -0.268 OA
BRANCH   3   5
ATOM      5  CA  TYR     5       0.707 -21.870   9.008  1.00  0.00     0.191 C 
BRANCH   5   6
ATOM      6  N   TYR     5       1.574 -23.069   9.151  1.00  0.00    -0.228 NA
ATOM      7  C   GLU     4       1.841 -23.644  10.335  1.00  0.00     0.274 C 
ATOM      8  O   GLU     4       1.281 -23.312  11.372  1.00  0.00    -0.268 OA
BRANCH   7   9
ATOM      9  CA  GLU     4       2.643 -24.960  10.283  1.00  0.00     0.187 C 
BRANCH   9  10
ATOM     10  CB  GLU     4       4.101 -24.668   9.892  1.00  0.00     0.045 C 
BRANCH  10  11
ATOM     11  CG  GLU     4       5.142 -24.747  11.030  1.00  0.00     0.100 C 
BRANCH  11  12
ATOM     12  CD  GLU     4       6.378 -25.582  10.695  1.00  0.00     0.185 C 
ATOM     13  OE1 GLU     4       7.031 -25.261   9.667  1.00  0.00    -0.647 OA
ATOM     14  OE2 GLU     4       6.402 -26.749  11.133  1.00  0.00    -0.647 OA
ENDBRANCH  11  12
ENDBRANCH  10  11
ENDBRANCH   9  10
BRANCH   9  15
ATOM     15  N   GLU     4       2.088 -25.942   9.331  1.00  0.00    -0.229 NA
ATOM     16  C   PRO     3       1.373 -27.029   9.598  1.00  0.00     0.272 C 
ATOM     17  O   PRO     3       0.749 -27.187  10.648  1.00  0.00    -0.269 OA
BRANCH  16  18
ATOM     18  CA  PRO     3       0.946 -27.846   8.377  1.00  0.00     0.165 C 
ATOM     19  N   PRO     3       1.313 -29.278   8.428  1.00  0.00    -0.312 N 
ATOM     20  CD  PRO     3       0.197 -30.098   7.891  1.00  0.00     0.105 C 
ATOM     21  C   ASP     2       2.535 -29.729   8.764  1.00  0.00     0.257 C 
ATOM     22  CG  PRO     3      -0.783 -29.069   7.306  1.00  0.00     0.027 C 
ATOM     23  CB  PRO     3      -0.566 -27.830   8.170  1.00  0.00     0.034 C 
ATOM     24  O   ASP     2       3.492 -28.944   8.846  1.00  0.00    -0.270 OA
BRANCH  21  25
ATOM     25  CA  ASP     2       2.830 -31.245   8.700  1.00  0.00     0.195 C 
BRANCH  25  26
ATOM     26  CB  ASP     2       1.666 -32.191   9.095  1.00  0.00     0.132 C 
BRANCH  26  27
ATOM     27  CG  ASP     2       1.333 -32.039  10.591  1.00  0.00     0.188 C 
ATOM     28  OD2 ASP     2       2.202 -32.479  11.386  1.00  0.00    -0.647 OA
ATOM     29  OD1 ASP     2       0.117 -32.058  10.903  1.00  0.00    -0.647 OA
ENDBRANCH  26  27
ENDBRANCH  25  26
BRANCH  25  30
ATOM     30  N   ASP     2       3.894 -31.642   9.637  1.00  0.00    -0.228 NA
ATOM     31  C   TYR     1       5.185 -31.657   9.398  1.00  0.00     0.289 C 
ATOM     32  O   TYR     1       5.780 -31.222   8.407  1.00  0.00    -0.268 OA
BRANCH  31  33
ATOM     33  CA  TYR     1       5.966 -32.330  10.522  1.00  0.00     0.385 C 
ATOM     34  N   TYR     1       5.562 -33.745  10.568  1.00  0.00     0.626 N 
BRANCH  33  35
ATOM     35  CB  TYR     1       7.451 -32.157  10.212  1.00  0.00     0.075 C 
BRANCH  35  36
ATOM     36  CG  TYR     1       8.028 -33.307   9.372  1.00  0.00    -0.019 A 
ATOM     37  CD2 TYR     1       8.101 -33.227   7.990  1.00  0.00    -0.002 A 
ATOM     38  CE2 TYR     1       8.748 -34.219   7.268  1.00  0.00     0.027 A 
ATOM     39  CZ  TYR     1       9.315 -35.296   7.948  1.00  0.00     0.131 A 
ATOM     40  CE1 TYR     1       9.202 -35.390   9.323  1.00  0.00     0.027 A 
ATOM     41  OH  TYR     1      10.106 -36.170   7.294  1.00  0.00    -0.190 OA
ATOM     42  CD1 TYR     1       8.555 -34.399  10.046  1.00  0.00    -0.002 A 
ENDBRANCH  35  36
ENDBRANCH  33  35
ENDBRANCH  31  33
ENDBRANCH  25  30
ENDBRANCH  21  25
ENDBRANCH  16  18
ENDBRANCH   9  15
ENDBRANCH   7   9
ENDBRANCH   5   6
BRANCH   5  43
ATOM     43  CB  TYR     5      -0.539 -22.011   9.899  1.00  0.00     0.060 C 
BRANCH  43  44
ATOM     44  CG  TYR     5      -1.670 -22.786   9.202  1.00  0.00    -0.020 A 
ATOM     45  CD2 TYR     5      -2.513 -22.149   8.301  1.00  0.00    -0.002 A 
ATOM     46  CE2 TYR     5      -3.529 -22.860   7.670  1.00  0.00     0.027 A 
ATOM     47  CZ  TYR     5      -3.701 -24.209   7.939  1.00  0.00     0.131 A 
ATOM     48  CE1 TYR     5      -2.850 -24.859   8.826  1.00  0.00     0.027 A 
ATOM     49  OH  TYR     5      -4.767 -24.873   7.439  1.00  0.00    -0.190 OA
ATOM     50  CD1 TYR     5      -1.838 -24.141   9.464  1.00  0.00    -0.002 A 
ENDBRANCH  43  44
ENDBRANCH   5  43
ENDBRANCH   3   5
ENDBRANCH   1   2
BRANCH   1  51
ATOM     51  CB  ARG     6       3.150 -18.416  10.010  1.00  0.00     0.036 C 
BRANCH  51  52
ATOM     52  CG  ARG     6       4.450 -18.093  10.750  1.00  0.00     0.029 C 
BRANCH  52  53
ATOM     53  CD  ARG     6       5.596 -17.914   9.758  1.00  0.00     0.145 C 
BRANCH  53  54
ATOM     54  NE  ARG     6       6.190 -16.572   9.876  1.00  0.00    -0.083 NA
ATOM     55  CZ  ARG     6       5.822 -15.489   9.165  1.00  0.00     0.782 C 
ATOM     56  NH2 ARG     6       6.486 -14.338   9.291  1.00  0.00     0.063 N 
ATOM     57  NH1 ARG     6       4.849 -15.577   8.265  1.00  0.00     0.063 N 
ENDBRANCH  53  54
ENDBRANCH  52  53
ENDBRANCH  51  52
ENDBRANCH   1  51
BRANCH   1  58
ATOM     58  C   ARG     6       1.065 -17.565  10.983  1.00  0.00     0.274 C 
ATOM     59  N   ASN     7      -0.222 -17.810  10.751  1.00  0.00    -0.228 NA
ATOM     60  O   ARG     6       1.542 -16.455  11.222  1.00  0.00    -0.268 OA
BRANCH  59  61
ATOM     61  CA  ASN     7      -1.278 -16.782  10.852  1.00  0.00     0.196 C 
BRANCH  61  62
ATOM     62  C   ASN     7      -2.518 -17.160  10.018  1.00  0.00     0.275 C 
ATOM     63  N   PHE     8      -3.325 -18.105  10.524  1.00  0.00    -0.228 NA
ATOM     64  O   ASN     7      -2.898 -16.352   9.193  1.00  0.00    -0.268 OA
BRANCH  63  65
ATOM     65  CA  PHE     8      -4.606 -18.541   9.916  1.00  0.00     0.191 C 
BRANCH  65  66
ATOM     66  CB  PHE     8      -5.011 -19.876  10.555  1.00  0.00     0.060 C 
BRANCH  66  67
ATOM     67  CG  PHE     8      -6.333 -20.461  10.024  1.00  0.00    -0.020 A 
ATOM     68  CD1 PHE     8      -7.203 -21.108  10.891  1.00  0.00    -0.004 A 
ATOM     69  CE1 PHE     8      -8.350 -21.725  10.392  1.00  0.00    -0.000 A 
ATOM     70  CZ  PHE     8      -8.622 -21.676   9.035  1.00  0.00    -0.000 A 
ATOM     71  CE2 PHE     8      -7.759 -21.017   8.165  1.00  0.00    -0.000 A 
ATOM     72  CD2 PHE     8      -6.612 -20.399   8.664  1.00  0.00    -0.004 A 
ENDBRANCH  66  67
ENDBRANCH  65  66
BRANCH  65  73
ATOM     73  C   PHE     8      -5.749 -17.504   9.986  1.00  0.00     0.275 C 
ATOM     74  N   TRP     9      -6.142 -16.974   8.826  1.00  0.00    -0.228 NA
ATOM     75  O   PHE     8      -6.094 -17.013  11.064  1.00  0.00    -0.268 OA
BRANCH  74  76
ATOM     76  CA  TRP     9      -7.308 -16.061   8.733  1.00  0.00     0.191 C 
BRANCH  76  77
ATOM     77  CB  TRP     9      -7.049 -15.039   7.613  1.00  0.00     0.062 C 
BRANCH  77  78
ATOM     78  CG  TRP     9      -6.178 -13.865   8.059  1.00  0.00     0.001 A 
ATOM     79  CD1 TRP     9      -4.864 -13.758   7.886  1.00  0.00     0.095 A 
ATOM     80  NE1 TRP     9      -4.392 -12.774   8.641  1.00  0.00    -0.244 NA
ATOM     81  CE2 TRP     9      -5.388 -12.208   9.305  1.00  0.00     0.081 A 
ATOM     82  CD2 TRP     9      -6.551 -12.885   8.973  1.00  0.00     0.015 A 
ATOM     83  CZ2 TRP     9      -5.430 -11.212  10.280  1.00  0.00     0.019 A 
ATOM     84  CE3 TRP     9      -7.749 -12.594   9.608  1.00  0.00     0.001 A 
ATOM     85  CZ3 TRP     9      -7.791 -11.610  10.590  1.00  0.00     0.000 A 
ATOM     86  CH2 TRP     9      -6.629 -10.908  10.908  1.00  0.00     0.002 A 
ENDBRANCH  77  78
ENDBRANCH  76  77
BRANCH  76  87
ATOM     87  C   TRP     9      -8.667 -16.773   8.551  1.00  0.00     0.275 C 
ATOM     88  O   TRP     9      -8.866 -17.517   7.595  1.00  0.00    -0.268 OA
ATOM     89  N   GLY    10      -9.552 -16.611   9.533  1.00  0.00    -0.226 NA
BRANCH  89  90
ATOM     90  CA  GLY    10     -10.897 -17.248   9.564  1.00  0.00     0.218 C 
BRANCH  90  91
ATOM     91  C   GLY    10     -11.832 -16.927   8.386  1.00  0.00     0.277 C 
ATOM     92  N   CYS    11     -12.529 -15.798   8.512  1.00  0.00    -0.228 NA
ATOM     93  O   GLY    10     -12.026 -17.752   7.501  1.00  0.00    -0.268 OA
BRANCH  92  94
ATOM     94  CA  CYS    11     -13.481 -15.235   7.528  1.00  0.00     0.198 C 
BRANCH  94  95
ATOM     95  C   CYS    11     -13.288 -13.707   7.497  1.00  0.00     0.275 C 
ATOM     96  O   CYS    11     -12.150 -13.250   7.500  1.00  0.00    -0.268 OA
ATOM     97  N   GLY    12     -14.381 -12.978   7.669  1.00  0.00    -0.225 NA
BRANCH  97  98
ATOM     98  CA  GLY    12     -14.370 -11.507   7.683  1.00  0.00     0.226 C 
BRANCH  98  99
ATOM     99  C   GLY    12     -15.836 -11.020   7.768  1.00  0.00     0.211 C 
ATOM    100  O1  GLY    12     -16.012  -9.820   8.099  1.00  0.00    -0.646 OA
ATOM    101  O2  GLY    12     -16.734 -11.829   7.472  1.00  0.00    -0.646 OA
ENDBRANCH  98  99
ENDBRANCH  97  98
ENDBRANCH  94  95
BRANCH  94 102
ATOM    102  CB  CYS    11     -14.916 -15.460   7.997  1.00  0.00     0.103 C 
ATOM    103  SG  CYS    11     -15.129 -16.553   9.455  1.00  0.00    -0.080 SA
ENDBRANCH  94 102
ENDBRANCH  92  94
ENDBRANCH  90  91
ENDBRANCH  89  90
ENDBRANCH  76  87
ENDBRANCH  74  76
ENDBRANCH  65  73
ENDBRANCH  63  65
ENDBRANCH  61  62
BRANCH  61 104
ATOM    104  CB  ASN     7      -0.750 -15.400  10.447  1.00  0.00     0.126 C 
BRANCH 104 105
ATOM    105  CG  ASN     7      -1.726 -14.235  10.696  1.00  0.00     0.276 C 
ATOM    106  ND2 ASN     7      -1.180 -13.054  10.876  1.00  0.00    -0.107 N 
ATOM    107  OD1 ASN     7      -2.929 -14.356  10.889  1.00  0.00    -0.269 OA
ENDBRANCH 104 105
ENDBRANCH  61 104
ENDBRANCH  59  61
ENDBRANCH   1  58
TORSDOF 42
ENDMDL
MODEL 9
REMARK VINA RESULT:      -2.0     22.808     32.144
REMARK WARNING: 32 MAX_TORS EXCEEDED!!!
REMARK  42 active torsions:
REMARK  status: ('A' for Active; 'I' for Inactive)
REMARK    1  A    between atoms: CA_2  and  CB_3 
REMARK    2  A    between atoms: CA_2  and  C_11 
REMARK    3  A    between atoms: CB_3  and  CG_4 
REMARK       I    between atoms: C_11  and  N_13 
REMARK    4  A    between atoms: N_13  and  CA_14 
REMARK    5  A    between atoms: CA_14  and  CB_15 
REMARK    6  A    between atoms: CA_14  and  C_19 
REMARK    7  A    between atoms: CB_15  and  CG_16 
REMARK       I    between atoms: C_19  and  N_21 
REMARK    8  A    between atoms: CA_22  and  C_26 
REMARK       I    between atoms: C_26  and  N_28 
REMARK    9  A    between atoms: N_28  and  CA_29 
REMARK   10  A    between atoms: CA_29  and  C_35 
REMARK   11  A    between atoms: CA_29  and  CB_30 
REMARK   12  A    between atoms: CB_30  and  CG_31 
REMARK   13  A    between atoms: CG_31  and  CD_32 
REMARK       I    between atoms: C_35  and  N_37 
REMARK   14  A    between atoms: N_37  and  CA_38 
REMARK   15  A    between atoms: CA_38  and  CB_39 
REMARK   16  A    between atoms: CA_38  and  C_47 
REMARK   17  A    between atoms: CB_39  and  CG_40 
REMARK       I    between atoms: C_47  and  N_49 
REMARK   18  A    between atoms: N_49  and  CA_50 
REMARK   19  A    between atoms: CA_50  and  CB_51 
REMARK   20  A    between atoms: CA_50  and  C_58 
REMARK   21  A    between atoms: CB_51  and  CG_52 
REMARK   22  A    between atoms: CG_52  and  CD_53 
REMARK   23  A    between atoms: CD_53  and  NE_54 
REMARK       I    between atoms: C_58  and  N_60 
REMARK   24  A    between atoms: N_60  and  CA_61 
REMARK   25  A    between atoms: CA_61  and  C_66 
REMARK   26  A    between atoms: CA_61  and  CB_62 
REMARK   27  A    between atoms: CB_62  and  CG_63 
REMARK       I    between atoms: C_66  and  N_68 
REMARK   28  A    between atoms: N_68  and  CA_69 
REMARK   29  A    between atoms: CA_69  and  CB_70 
REMARK   30  A    between atoms: CA_69  and  C_77 
REMARK   31  A    between atoms: CB_70  and  CG_71 
REMARK       I    between atoms: C_77  and  N_79 
REMARK   32  A    between atoms: N_79  and  CA_80 
REMARK   33  A    between atoms: CA_80  and  CB_81 
REMARK   34  A    between atoms: CA_80  and  C_91 
REMARK   35  A    between atoms: CB_81  and  CG_82 
REMARK       I    between atoms: C_91  and  N_93 
REMARK   36  A    between atoms: N_93  and  CA_94 
REMARK   37  A    between atoms: CA_94  and  C_95 
REMARK       I    between atoms: C_95  and  N_97 
REMARK   38  A    between atoms: N_97  and  CA_98 
REMARK   39  A    between atoms: CA_98  and  C_101 
REMARK   40  A    between atoms: CA_98  and  CB_99 
REMARK       I    between atoms: C_101  and  N_103 
REMARK   41  A    between atoms: N_103  and  CA_104 
REMARK   42  A    between atoms: CA_104  and  C_105 
ROOT
ATOM      1  CA  ARG     6      -8.325  -6.533   8.900  1.00  0.00     0.186 C 
ENDROOT
BRANCH   1   2
ATOM      2  N   ARG     6      -9.202  -7.648   9.327  1.00  0.00    -0.229 NA
ATOM      3  C   TYR     5     -10.005  -8.297   8.474  1.00  0.00     0.275 C 
ATOM      4  O   TYR     5     -10.044  -8.029   7.273  1.00  0.00    -0.268 OA
BRANCH   3   5
ATOM      5  CA  TYR     5     -10.808  -9.484   9.032  1.00  0.00     0.191 C 
BRANCH   5   6
ATOM      6  N   TYR     5     -12.191  -9.125   9.438  1.00  0.00    -0.228 NA
ATOM      7  C   GLU     4     -13.156  -8.808   8.558  1.00  0.00     0.274 C 
ATOM      8  O   GLU     4     -13.010  -8.926   7.348  1.00  0.00    -0.268 OA
BRANCH   7   9
ATOM      9  CA  GLU     4     -14.566  -8.600   9.146  1.00  0.00     0.187 C 
BRANCH   9  10
ATOM     10  CB  GLU     4     -14.521  -7.523  10.242  1.00  0.00     0.045 C 
BRANCH  10  11
ATOM     11  CG  GLU     4     -14.363  -6.064   9.760  1.00  0.00     0.100 C 
BRANCH  11  12
ATOM     12  CD  GLU     4     -14.687  -5.851   8.281  1.00  0.00     0.185 C 
ATOM     13  OE1 GLU     4     -13.762  -5.422   7.543  1.00  0.00    -0.647 OA
ATOM     14  OE2 GLU     4     -15.884  -5.653   7.993  1.00  0.00    -0.647 OA
ENDBRANCH  11  12
ENDBRANCH  10  11
ENDBRANCH   9  10
BRANCH   9  15
ATOM     15  N   GLU     4     -15.146  -9.830   9.718  1.00  0.00    -0.229 NA
ATOM     16  C   PRO     3     -15.998 -10.676   9.151  1.00  0.00     0.272 C 
ATOM     17  O   PRO     3     -16.150 -10.767   7.931  1.00  0.00    -0.269 OA
BRANCH  16  18
ATOM     18  CA  PRO     3     -16.412 -11.866  10.019  1.00  0.00     0.165 C 
ATOM     19  N   PRO     3     -17.853 -12.194   9.977  1.00  0.00    -0.312 N 
ATOM     20  CD  PRO     3     -18.029 -13.668   9.948  1.00  0.00     0.105 C 
ATOM     21  C   ASP     2     -18.835 -11.283  10.107  1.00  0.00     0.257 C 
ATOM     22  CG  PRO     3     -16.618 -14.224  10.196  1.00  0.00     0.027 C 
ATOM     23  CB  PRO     3     -15.699 -13.154   9.614  1.00  0.00     0.034 C 
ATOM     24  O   ASP     2     -18.575 -10.131  10.486  1.00  0.00    -0.270 OA
BRANCH  21  25
ATOM     25  CA  ASP     2     -20.308 -11.751  10.134  1.00  0.00     0.195 C 
BRANCH  25  26
ATOM     26  CB  ASP     2     -20.835 -12.444   8.851  1.00  0.00     0.132 C 
BRANCH  26  27
ATOM     27  CG  ASP     2     -22.283 -12.926   9.056  1.00  0.00     0.188 C 
ATOM     28  OD2 ASP     2     -22.451 -14.171   9.010  1.00  0.00    -0.647 OA
ATOM     29  OD1 ASP     2     -23.195 -12.147   8.683  1.00  0.00    -0.647 OA
ENDBRANCH  26  27
ENDBRANCH  25  26
BRANCH  25  30
ATOM     30  N   ASP     2     -21.244 -10.625  10.295  1.00  0.00    -0.228 NA
ATOM     31  C   TYR     1     -21.313  -9.549   9.546  1.00  0.00     0.289 C 
ATOM     32  O   TYR     1     -20.717  -9.318   8.489  1.00  0.00    -0.268 OA
BRANCH  31  33
ATOM     33  CA  TYR     1     -22.251  -8.501  10.137  1.00  0.00     0.385 C 
ATOM     34  N   TYR     1     -23.195  -9.193  11.031  1.00  0.00     0.626 N 
BRANCH  33  35
ATOM     35  CB  TYR     1     -21.387  -7.482  10.877  1.00  0.00     0.075 C 
BRANCH  35  36
ATOM     36  CG  TYR     1     -21.674  -6.033  10.456  1.00  0.00    -0.019 A 
ATOM     37  CD2 TYR     1     -20.746  -5.023  10.661  1.00  0.00    -0.002 A 
ATOM     38  CE2 TYR     1     -20.972  -3.754  10.151  1.00  0.00     0.027 A 
ATOM     39  CZ  TYR     1     -22.144  -3.506   9.438  1.00  0.00     0.131 A 
ATOM     40  CE1 TYR     1     -23.084  -4.508   9.272  1.00  0.00     0.027 A 
ATOM     41  OH  TYR     1     -22.302  -2.343   8.775  1.00  0.00    -0.190 OA
ATOM     42  CD1 TYR     1     -22.858  -5.777   9.782  1.00  0.00    -0.002 A 
ENDBRANCH  35  36
ENDBRANCH  33  35
ENDBRANCH  31  33
ENDBRANCH  25  30
ENDBRANCH  21  25
ENDBRANCH  16  18
ENDBRANCH   9  15
ENDBRANCH   7   9
ENDBRANCH   5   6
BRANCH   5  43
ATOM     43  CB  TYR     5     -10.838 -10.648   8.027  1.00  0.00     0.060 C 
BRANCH  43  44
ATOM     44  CG  TYR     5     -10.536 -12.001   8.692  1.00  0.00    -0.020 A 
ATOM     45  CD2 TYR     5     -10.145 -12.063  10.023  1.00  0.00    -0.002 A 
ATOM     46  CE2 TYR     5      -9.881 -13.293  10.618  1.00  0.00     0.027 A 
ATOM     47  CZ  TYR     5     -10.008 -14.460   9.882  1.00  0.00     0.131 A 
ATOM     48  CE1 TYR     5     -10.416 -14.409   8.554  1.00  0.00     0.027 A 
ATOM     49  OH  TYR     5      -9.620 -15.642  10.409  1.00  0.00    -0.190 OA
ATOM     50  CD1 TYR     5     -10.671 -13.174   7.957  1.00  0.00    -0.002 A 
ENDBRANCH  43  44
ENDBRANCH   5  43
ENDBRANCH   3   5
ENDBRANCH   1   2
BRANCH   1  51
ATOM     51  CB  ARG     6      -7.839  -6.678   7.461  1.00  0.00     0.036 C 
BRANCH  51  52
ATOM     52  CG  ARG     6      -6.315  -6.760   7.332  1.00  0.00     0.029 C 
BRANCH  52  53
ATOM     53  CD  ARG     6      -5.773  -7.914   8.170  1.00  0.00     0.145 C 
BRANCH  53  54
ATOM     54  NE  ARG     6      -6.356  -9.197   7.742  1.00  0.00    -0.083 NA
ATOM     55  CZ  ARG     6      -6.240 -10.366   8.401  1.00  0.00     0.782 C 
ATOM     56  NH2 ARG     6      -6.740 -11.489   7.880  1.00  0.00     0.063 N 
ATOM     57  NH1 ARG     6      -5.552 -10.432   9.535  1.00  0.00     0.063 N 
ENDBRANCH  53  54
ENDBRANCH  52  53
ENDBRANCH  51  52
ENDBRANCH   1  51
BRANCH   1  58
ATOM     58  C   ARG     6      -9.021  -5.170   8.992  1.00  0.00     0.274 C 
ATOM     59  N   ASN     7      -8.496  -4.311   9.862  1.00  0.00    -0.228 NA
ATOM     60  O   ARG     6     -10.003  -4.947   8.282  1.00  0.00    -0.268 OA
BRANCH  59  61
ATOM     61  CA  ASN     7      -8.969  -2.920  10.020  1.00  0.00     0.196 C 
BRANCH  61  62
ATOM     62  C   ASN     7      -7.827  -1.906   9.807  1.00  0.00     0.275 C 
ATOM     63  N   PHE     8      -7.988  -0.689  10.347  1.00  0.00    -0.228 NA
ATOM     64  O   ASN     7      -6.733  -2.355   9.525  1.00  0.00    -0.268 OA
BRANCH  63  65
ATOM     65  CA  PHE     8      -6.970   0.390  10.324  1.00  0.00     0.191 C 
BRANCH  65  66
ATOM     66  CB  PHE     8      -6.162   0.261   9.025  1.00  0.00     0.060 C 
BRANCH  66  67
ATOM     67  CG  PHE     8      -5.176   1.417   8.772  1.00  0.00    -0.020 A 
ATOM     68  CD1 PHE     8      -4.046   1.551   9.567  1.00  0.00    -0.004 A 
ATOM     69  CE1 PHE     8      -3.209   2.654   9.403  1.00  0.00    -0.000 A 
ATOM     70  CZ  PHE     8      -3.503   3.603   8.437  1.00  0.00    -0.000 A 
ATOM     71  CE2 PHE     8      -4.627   3.464   7.631  1.00  0.00    -0.000 A 
ATOM     72  CD2 PHE     8      -5.465   2.361   7.794  1.00  0.00    -0.004 A 
ENDBRANCH  66  67
ENDBRANCH  65  66
BRANCH  65  73
ATOM     73  C   PHE     8      -7.529   1.819  10.509  1.00  0.00     0.275 C 
ATOM     74  N   TRP     9      -8.464   2.208   9.640  1.00  0.00    -0.228 NA
ATOM     75  O   PHE     8      -6.965   2.629  11.249  1.00  0.00    -0.268 OA
BRANCH  74  76
ATOM     76  CA  TRP     9      -9.173   3.504   9.775  1.00  0.00     0.191 C 
BRANCH  76  77
ATOM     77  CB  TRP     9      -9.019   4.292   8.464  1.00  0.00     0.062 C 
BRANCH  77  78
ATOM     78  CG  TRP     9      -8.798   5.788   8.683  1.00  0.00     0.001 A 
ATOM     79  CD1 TRP     9      -9.538   6.769   8.176  1.00  0.00     0.095 A 
ATOM     80  NE1 TRP     9      -8.905   7.927   8.317  1.00  0.00    -0.244 NA
ATOM     81  CE2 TRP     9      -7.751   7.728   8.936  1.00  0.00     0.081 A 
ATOM     82  CD2 TRP     9      -7.635   6.368   9.177  1.00  0.00     0.015 A 
ATOM     83  CZ2 TRP     9      -6.686   8.573   9.247  1.00  0.00     0.019 A 
ATOM     84  CE3 TRP     9      -6.468   5.839   9.709  1.00  0.00     0.001 A 
ATOM     85  CZ3 TRP     9      -5.400   6.678  10.007  1.00  0.00     0.000 A 
ATOM     86  CH2 TRP     9      -5.523   8.049   9.791  1.00  0.00     0.002 A 
ENDBRANCH  77  78
ENDBRANCH  76  77
BRANCH  76  87
ATOM     87  C   TRP     9     -10.656   3.382  10.196  1.00  0.00     0.275 C 
ATOM     88  O   TRP     9     -10.963   2.931  11.295  1.00  0.00    -0.268 OA
ATOM     89  N   GLY    10     -11.551   3.884   9.346  1.00  0.00    -0.226 NA
BRANCH  89  90
ATOM     90  CA  GLY    10     -13.020   3.902   9.590  1.00  0.00     0.218 C 
BRANCH  90  91
ATOM     91  C   GLY    10     -13.870   2.980   8.701  1.00  0.00     0.277 C 
ATOM     92  N   CYS    11     -14.473   1.979   9.341  1.00  0.00    -0.228 NA
ATOM     93  O   GLY    10     -13.833   3.084   7.480  1.00  0.00    -0.268 OA
BRANCH  92  94
ATOM     94  CA  CYS    11     -15.365   0.960   8.743  1.00  0.00     0.198 C 
BRANCH  94  95
ATOM     95  C   CYS    11     -16.821   1.430   8.931  1.00  0.00     0.275 C 
ATOM     96  O   CYS    11     -17.689   0.994   8.182  1.00  0.00    -0.268 OA
ATOM     97  N   GLY    12     -17.004   2.436   9.773  1.00  0.00    -0.225 NA
BRANCH  97  98
ATOM     98  CA  GLY    12     -18.326   3.015  10.055  1.00  0.00     0.226 C 
BRANCH  98  99
ATOM     99  C   GLY    12     -18.112   4.406  10.697  1.00  0.00     0.211 C 
ATOM    100  O1  GLY    12     -16.951   4.666  11.103  1.00  0.00    -0.646 OA
ATOM    101  O2  GLY    12     -19.084   5.182  10.737  1.00  0.00    -0.646 OA
ENDBRANCH  98  99
ENDBRANCH  97  98
ENDBRANCH  94  95
BRANCH  94 102
ATOM    102  CB  CYS    11     -15.253  -0.353   9.513  1.00  0.00     0.103 C 
ATOM    103  SG  CYS    11     -15.580  -0.264  11.315  1.00  0.00    -0.080 SA
ENDBRANCH  94 102
ENDBRANCH  92  94
ENDBRANCH  90  91
ENDBRANCH  89  90
ENDBRANCH  76  87
ENDBRANCH  74  76
ENDBRANCH  65  73
ENDBRANCH  63  65
ENDBRANCH  61  62
BRANCH  61 104
ATOM    104  CB  ASN     7      -9.637  -2.711  11.385  1.00  0.00     0.126 C 
BRANCH 104 105
ATOM    105  CG  ASN     7     -11.174  -2.625  11.347  1.00  0.00     0.276 C 
ATOM    106  ND2 ASN     7     -11.816  -3.770  11.392  1.00  0.00    -0.107 N 
ATOM    107  OD1 ASN     7     -11.816  -1.607  11.125  1.00  0.00    -0.269 OA
ENDBRANCH 104 105
ENDBRANCH  61 104
ENDBRANCH  59  61
ENDBRANCH   1  58
TORSDOF 42
ENDMDL
