MODEL 1
REMARK VINA RESULT:      -5.3      0.000      0.000
REMARK WARNING: 32 MAX_TORS EXCEEDED!!!
REMARK  33 active torsions:
REMARK  status: ('A' for Active; 'I' for Inactive)
REMARK    1  A    between atoms: CA_2  and  C_8 
REMARK    2  A    between atoms: CA_2  and  CB_3 
REMARK    3  A    between atoms: CB_3  and  CG_4 
REMARK    4  A    between atoms: CG_4  and  CD_5 
REMARK       I    between atoms: C_8  and  N_10 
REMARK    5  A    between atoms: N_10  and  CA_11 
REMARK    6  A    between atoms: CA_11  and  C_12 
REMARK       I    between atoms: C_12  and  N_14 
REMARK    7  A    between atoms: N_14  and  CA_15 
REMARK    8  A    between atoms: CA_15  and  C_20 
REMARK    9  A    between atoms: CA_15  and  CB_16 
REMARK   10  A    between atoms: CB_16  and  CG_17 
REMARK       I    between atoms: C_20  and  N_22 
REMARK   11  A    between atoms: N_22  and  CA_23 
REMARK   12  A    between atoms: CA_23  and  CB_24 
REMARK   13  A    between atoms: CA_23  and  C_28 
REMARK   14  A    between atoms: CB_24  and  CG_25 
REMARK       I    between atoms: C_28  and  N_30 
REMARK   15  A    between atoms: N_30  and  CA_31 
REMARK   16  A    between atoms: CA_31  and  CB_32 
REMARK   17  A    between atoms: CA_31  and  C_39 
REMARK   18  A    between atoms: CB_32  and  CG_33 
REMARK   19  A    between atoms: CG_33  and  CD_34 
REMARK   20  A    between atoms: CD_34  and  NE_35 
REMARK       I    between atoms: C_39  and  N_41 
REMARK   21  A    between atoms: CA_42  and  C_46 
REMARK       I    between atoms: C_46  and  N_48 
REMARK   22  A    between atoms: N_48  and  CA_49 
REMARK   23  A    between atoms: CA_49  and  C_52 
REMARK   24  A    between atoms: CA_49  and  CB_50 
REMARK       I    between atoms: C_52  and  N_54 
REMARK   25  A    between atoms: N_54  and  CA_55 
REMARK   26  A    between atoms: CA_55  and  C_56 
REMARK       I    between atoms: C_56  and  N_58 
REMARK   27  A    between atoms: N_58  and  CA_59 
REMARK   28  A    between atoms: CA_59  and  C_60 
REMARK       I    between atoms: C_60  and  N_62 
REMARK   29  A    between atoms: N_62  and  CA_63 
REMARK   30  A    between atoms: CA_63  and  CB_64 
REMARK   31  A    between atoms: CA_63  and  C_66 
REMARK       I    between atoms: C_66  and  N_68 
REMARK   32  A    between atoms: N_68  and  CA_69 
REMARK   33  A    between atoms: CA_69  and  C_70 
ROOT
ATOM      1  CA  ARG     5       5.924 -19.501   9.280  1.00  0.00     0.185 C 
ENDROOT
BRANCH   1   2
ATOM      2  N   ARG     5       4.603 -19.289   8.660  1.00  0.00    -0.229 NA
ATOM      3  C   ASN     4       3.532 -18.805   9.270  1.00  0.00     0.275 C 
ATOM      4  O   ASN     4       3.420 -18.703  10.488  1.00  0.00    -0.268 OA
BRANCH   3   5
ATOM      5  CA  ASN     4       2.311 -18.696   8.334  1.00  0.00     0.196 C 
BRANCH   5   6
ATOM      6  N   ASN     4       1.275 -19.680   8.711  1.00  0.00    -0.228 NA
ATOM      7  C   LEU     3       1.159 -20.874   8.134  1.00  0.00     0.274 C 
ATOM      8  O   LEU     3       1.893 -21.300   7.238  1.00  0.00    -0.268 OA
BRANCH   7   9
ATOM      9  CA  LEU     3       0.056 -21.762   8.707  1.00  0.00     0.186 C 
BRANCH   9  10
ATOM     10  N   LEU     3      -1.260 -21.304   8.206  1.00  0.00    -0.229 NA
ATOM     11  C   GLY     2      -2.119 -20.608   8.956  1.00  0.00     0.277 C 
ATOM     12  O   GLY     2      -1.835 -20.158  10.057  1.00  0.00    -0.268 OA
BRANCH  11  13
ATOM     13  CA  GLY     2      -3.461 -20.244   8.287  1.00  0.00     0.218 C 
BRANCH  13  14
ATOM     14  N   GLY     2      -4.296 -19.196   8.921  1.00  0.00    -0.226 NA
ATOM     15  C   GLU     1      -4.914 -18.250   8.204  1.00  0.00     0.289 C 
ATOM     16  O   GLU     1      -4.951 -18.306   6.986  1.00  0.00    -0.268 OA
BRANCH  15  17
ATOM     17  CA  GLU     1      -5.663 -17.116   8.953  1.00  0.00     0.381 C 
ATOM     18  N   GLU     1      -4.775 -16.055   9.462  1.00  0.00     0.626 N 
BRANCH  17  19
ATOM     19  CB  GLU     1      -6.744 -16.540   8.017  1.00  0.00     0.060 C 
BRANCH  19  20
ATOM     20  CG  GLU     1      -7.043 -15.033   8.047  1.00  0.00     0.100 C 
BRANCH  20  21
ATOM     21  CD  GLU     1      -7.669 -14.523   6.740  1.00  0.00     0.185 C 
ATOM     22  OE1 GLU     1      -7.636 -13.302   6.506  1.00  0.00    -0.647 OA
ATOM     23  OE2 GLU     1      -8.211 -15.347   5.983  1.00  0.00    -0.647 OA
ENDBRANCH  20  21
ENDBRANCH  19  20
ENDBRANCH  17  19
ENDBRANCH  15  17
ENDBRANCH  13  14
ENDBRANCH  11  13
ENDBRANCH   9  10
BRANCH   9  24
ATOM     24  CB  LEU     3       0.318 -23.211   8.280  1.00  0.00     0.034 C 
BRANCH  24  25
ATOM     25  CG  LEU     3      -0.834 -23.840   7.475  1.00  0.00     0.002 C 
ATOM     26  CD1 LEU     3      -0.367 -24.109   6.045  1.00  0.00     0.000 C 
ATOM     27  CD2 LEU     3      -1.317 -25.142   8.123  1.00  0.00     0.000 C 
ENDBRANCH  24  25
ENDBRANCH   9  24
ENDBRANCH   7   9
ENDBRANCH   5   6
BRANCH   5  28
ATOM     28  CB  ASN     4       1.722 -17.275   8.340  1.00  0.00     0.126 C 
BRANCH  28  29
ATOM     29  CG  ASN     4       0.359 -17.173   9.052  1.00  0.00     0.276 C 
ATOM     30  ND2 ASN     4       0.389 -17.109  10.356  1.00  0.00    -0.107 N 
ATOM     31  OD1 ASN     4      -0.706 -17.087   8.470  1.00  0.00    -0.269 OA
ENDBRANCH  28  29
ENDBRANCH   5  28
ENDBRANCH   3   5
ENDBRANCH   1   2
BRANCH   1  32
ATOM     32  CB  ARG     5       6.213 -20.998   9.432  1.00  0.00     0.036 C 
BRANCH  32  33
ATOM     33  CG  ARG     5       5.145 -21.901   8.811  1.00  0.00     0.029 C 
BRANCH  33  34
ATOM     34  CD  ARG     5       4.974 -23.149   9.670  1.00  0.00     0.145 C 
BRANCH  34  35
ATOM     35  NE  ARG     5       6.273 -23.661  10.169  1.00  0.00    -0.083 NA
ATOM     36  CZ  ARG     5       6.972 -24.657   9.604  1.00  0.00     0.782 C 
ATOM     37  NH2 ARG     5       8.244 -24.901   9.959  1.00  0.00     0.063 N 
ATOM     38  NH1 ARG     5       6.481 -25.354   8.589  1.00  0.00     0.063 N 
ENDBRANCH  34  35
ENDBRANCH  33  34
ENDBRANCH  32  33
ENDBRANCH   1  32
BRANCH   1  39
ATOM     39  C   ARG     5       7.013 -18.852   8.406  1.00  0.00     0.256 C 
ATOM     40  O   ARG     5       7.345 -19.386   7.343  1.00  0.00    -0.270 OA
ATOM     41  N   PRO     6       7.484 -17.664   8.798  1.00  0.00    -0.312 N 
ATOM     42  CA  PRO     6       8.553 -16.920   8.095  1.00  0.00     0.165 C 
ATOM     43  CD  PRO     6       6.918 -16.833   9.883  1.00  0.00     0.105 C 
ATOM     44  CB  PRO     6       8.812 -15.690   8.966  1.00  0.00     0.034 C 
ATOM     45  CG  PRO     6       7.453 -15.428   9.599  1.00  0.00     0.027 C 
BRANCH  42  46
ATOM     46  C   PRO     6       9.827 -17.769   7.952  1.00  0.00     0.272 C 
ATOM     47  N   SER     7      10.557 -17.668   6.850  1.00  0.00    -0.226 NA
ATOM     48  O   PRO     6      10.106 -18.614   8.809  1.00  0.00    -0.269 OA
BRANCH  47  49
ATOM     49  CA  SER     7      10.280 -16.802   5.678  1.00  0.00     0.219 C 
BRANCH  49  50
ATOM     50  C   SER     7      10.610 -15.326   5.962  1.00  0.00     0.277 C 
ATOM     51  O   SER     7       9.724 -14.484   5.867  1.00  0.00    -0.268 OA
ATOM     52  N   GLY     8      11.789 -15.096   6.524  1.00  0.00    -0.226 NA
BRANCH  52  53
ATOM     53  CA  GLY     8      12.339 -13.722   6.666  1.00  0.00     0.218 C 
BRANCH  53  54
ATOM     54  C   GLY     8      13.094 -13.115   5.471  1.00  0.00     0.277 C 
ATOM     55  N   GLY     9      13.308 -11.791   5.490  1.00  0.00    -0.226 NA
ATOM     56  O   GLY     8      13.508 -13.835   4.577  1.00  0.00    -0.268 OA
BRANCH  55  57
ATOM     57  CA  GLY     9      13.983 -11.068   4.393  1.00  0.00     0.218 C 
BRANCH  57  58
ATOM     58  C   GLY     9      13.825  -9.536   4.545  1.00  0.00     0.277 C 
ATOM     59  O   GLY     9      13.276  -8.899   3.655  1.00  0.00    -0.268 OA
ATOM     60  N   CYS    10      14.412  -8.867   5.527  1.00  0.00    -0.228 NA
BRANCH  60  61
ATOM     61  CA  CYS    10      15.307  -9.396   6.584  1.00  0.00     0.198 C 
BRANCH  61  62
ATOM     62  CB  CYS    10      16.734  -8.848   6.470  1.00  0.00     0.103 C 
ATOM     63  SG  CYS    10      18.028  -9.958   5.817  1.00  0.00    -0.080 SA
ENDBRANCH  61  62
BRANCH  61  64
ATOM     64  C   CYS    10      14.874  -9.038   8.007  1.00  0.00     0.275 C 
ATOM     65  O   CYS    10      15.732  -8.788   8.852  1.00  0.00    -0.268 OA
ATOM     66  N   GLY    11      13.593  -8.726   8.113  1.00  0.00    -0.225 NA
BRANCH  66  67
ATOM     67  CA  GLY    11      12.824  -9.035   9.327  1.00  0.00     0.226 C 
BRANCH  67  68
ATOM     68  C   GLY    11      12.288  -7.678   9.809  1.00  0.00     0.211 C 
ATOM     69  O2  GLY    11      13.157  -6.824  10.090  1.00  0.00    -0.646 OA
ATOM     70  O1  GLY    11      11.095  -7.423   9.528  1.00  0.00    -0.646 OA
ENDBRANCH  67  68
ENDBRANCH  66  67
ENDBRANCH  61  64
ENDBRANCH  60  61
ENDBRANCH  57  58
ENDBRANCH  55  57
ENDBRANCH  53  54
ENDBRANCH  52  53
ENDBRANCH  49  50
BRANCH  49  71
ATOM     71  CB  SER     7       8.809 -16.869   5.261  1.00  0.00     0.216 C 
ATOM     72  OG  SER     7       8.712 -17.024   3.845  1.00  0.00    -0.218 OA
ENDBRANCH  49  71
ENDBRANCH  47  49
ENDBRANCH  42  46
ENDBRANCH   1  39
TORSDOF 33
ENDMDL
MODEL 2
REMARK VINA RESULT:      -5.2      2.550      4.051
REMARK WARNING: 32 MAX_TORS EXCEEDED!!!
REMARK  33 active torsions:
REMARK  status: ('A' for Active; 'I' for Inactive)
REMARK    1  A    between atoms: CA_2  and  C_8 
REMARK    2  A    between atoms: CA_2  and  CB_3 
REMARK    3  A    between atoms: CB_3  and  CG_4 
REMARK    4  A    between atoms: CG_4  and  CD_5 
REMARK       I    between atoms: C_8  and  N_10 
REMARK    5  A    between atoms: N_10  and  CA_11 
REMARK    6  A    between atoms: CA_11  and  C_12 
REMARK       I    between atoms: C_12  and  N_14 
REMARK    7  A    between atoms: N_14  and  CA_15 
REMARK    8  A    between atoms: CA_15  and  C_20 
REMARK    9  A    between atoms: CA_15  and  CB_16 
REMARK   10  A    between atoms: CB_16  and  CG_17 
REMARK       I    between atoms: C_20  and  N_22 
REMARK   11  A    between atoms: N_22  and  CA_23 
REMARK   12  A    between atoms: CA_23  and  CB_24 
REMARK   13  A    between atoms: CA_23  and  C_28 
REMARK   14  A    between atoms: CB_24  and  CG_25 
REMARK       I    between atoms: C_28  and  N_30 
REMARK   15  A    between atoms: N_30  and  CA_31 
REMARK   16  A    between atoms: CA_31  and  CB_32 
REMARK   17  A    between atoms: CA_31  and  C_39 
REMARK   18  A    between atoms: CB_32  and  CG_33 
REMARK   19  A    between atoms: CG_33  and  CD_34 
REMARK   20  A    between atoms: CD_34  and  NE_35 
REMARK       I    between atoms: C_39  and  N_41 
REMARK   21  A    between atoms: CA_42  and  C_46 
REMARK       I    between atoms: C_46  and  N_48 
REMARK   22  A    between atoms: N_48  and  CA_49 
REMARK   23  A    between atoms: CA_49  and  C_52 
REMARK   24  A    between atoms: CA_49  and  CB_50 
REMARK       I    between atoms: C_52  and  N_54 
REMARK   25  A    between atoms: N_54  and  CA_55 
REMARK   26  A    between atoms: CA_55  and  C_56 
REMARK       I    between atoms: C_56  and  N_58 
REMARK   27  A    between atoms: N_58  and  CA_59 
REMARK   28  A    between atoms: CA_59  and  C_60 
REMARK       I    between atoms: C_60  and  N_62 
REMARK   29  A    between atoms: N_62  and  CA_63 
REMARK   30  A    between atoms: CA_63  and  CB_64 
REMARK   31  A    between atoms: CA_63  and  C_66 
REMARK       I    between atoms: C_66  and  N_68 
REMARK   32  A    between atoms: N_68  and  CA_69 
REMARK   33  A    between atoms: CA_69  and  C_70 
ROOT
ATOM      1  CA  ARG     5       5.996 -19.294   8.728  1.00  0.00     0.185 C 
ENDROOT
BRANCH   1   2
ATOM      2  N   ARG     5       4.711 -18.821   8.179  1.00  0.00    -0.229 NA
ATOM      3  C   ASN     4       3.711 -18.314   8.883  1.00  0.00     0.275 C 
ATOM      4  O   ASN     4       3.613 -18.401  10.103  1.00  0.00    -0.268 OA
BRANCH   3   5
ATOM      5  CA  ASN     4       2.513 -17.902   8.004  1.00  0.00     0.196 C 
BRANCH   5   6
ATOM      6  N   ASN     4       1.239 -18.314   8.630  1.00  0.00    -0.228 NA
ATOM      7  C   LEU     3       0.725 -19.535   8.501  1.00  0.00     0.274 C 
ATOM      8  O   LEU     3       1.243 -20.457   7.863  1.00  0.00    -0.268 OA
BRANCH   7   9
ATOM      9  CA  LEU     3      -0.572 -19.773   9.272  1.00  0.00     0.186 C 
BRANCH   9  10
ATOM     10  N   LEU     3      -1.610 -20.285   8.350  1.00  0.00    -0.229 NA
ATOM     11  C   GLY     2      -2.655 -19.552   7.955  1.00  0.00     0.277 C 
ATOM     12  O   GLY     2      -2.763 -18.358   8.192  1.00  0.00    -0.268 OA
BRANCH  11  13
ATOM     13  CA  GLY     2      -3.662 -20.257   7.021  1.00  0.00     0.218 C 
BRANCH  13  14
ATOM     14  N   GLY     2      -3.128 -21.016   5.864  1.00  0.00    -0.226 NA
ATOM     15  C   GLU     1      -3.841 -21.966   5.249  1.00  0.00     0.289 C 
ATOM     16  O   GLU     1      -5.022 -22.133   5.506  1.00  0.00    -0.268 OA
BRANCH  15  17
ATOM     17  CA  GLU     1      -3.164 -22.801   4.130  1.00  0.00     0.381 C 
ATOM     18  N   GLU     1      -1.909 -23.447   4.552  1.00  0.00     0.626 N 
BRANCH  17  19
ATOM     19  CB  GLU     1      -4.179 -23.838   3.608  1.00  0.00     0.060 C 
BRANCH  19  20
ATOM     20  CG  GLU     1      -3.923 -25.333   3.850  1.00  0.00     0.100 C 
BRANCH  20  21
ATOM     21  CD  GLU     1      -4.935 -25.961   4.820  1.00  0.00     0.185 C 
ATOM     22  OE1 GLU     1      -5.599 -26.939   4.430  1.00  0.00    -0.647 OA
ATOM     23  OE2 GLU     1      -5.075 -25.449   5.944  1.00  0.00    -0.647 OA
ENDBRANCH  20  21
ENDBRANCH  19  20
ENDBRANCH  17  19
ENDBRANCH  15  17
ENDBRANCH  13  14
ENDBRANCH  11  13
ENDBRANCH   9  10
BRANCH   9  24
ATOM     24  CB  LEU     3      -0.302 -20.785  10.392  1.00  0.00     0.034 C 
BRANCH  24  25
ATOM     25  CG  LEU     3      -0.338 -22.252   9.927  1.00  0.00     0.002 C 
ATOM     26  CD1 LEU     3       0.968 -22.942  10.317  1.00  0.00     0.000 C 
ATOM     27  CD2 LEU     3      -1.529 -22.999  10.537  1.00  0.00     0.000 C 
ENDBRANCH  24  25
ENDBRANCH   9  24
ENDBRANCH   7   9
ENDBRANCH   5   6
BRANCH   5  28
ATOM     28  CB  ASN     4       2.506 -16.387   7.735  1.00  0.00     0.126 C 
BRANCH  28  29
ATOM     29  CG  ASN     4       3.572 -15.934   6.718  1.00  0.00     0.276 C 
ATOM     30  ND2 ASN     4       4.601 -15.292   7.203  1.00  0.00    -0.107 N 
ATOM     31  OD1 ASN     4       3.533 -16.197   5.531  1.00  0.00    -0.269 OA
ENDBRANCH  28  29
ENDBRANCH   5  28
ENDBRANCH   3   5
ENDBRANCH   1   2
BRANCH   1  32
ATOM     32  CB  ARG     5       6.106 -20.817   8.599  1.00  0.00     0.036 C 
BRANCH  32  33
ATOM     33  CG  ARG     5       5.436 -21.585   9.739  1.00  0.00     0.029 C 
BRANCH  33  34
ATOM     34  CD  ARG     5       5.088 -22.993   9.267  1.00  0.00     0.145 C 
BRANCH  34  35
ATOM     35  NE  ARG     5       3.982 -22.988   8.279  1.00  0.00    -0.083 NA
ATOM     36  CZ  ARG     5       3.403 -24.088   7.773  1.00  0.00     0.782 C 
ATOM     37  NH2 ARG     5       2.256 -24.011   7.079  1.00  0.00     0.063 N 
ATOM     38  NH1 ARG     5       3.869 -25.299   8.043  1.00  0.00     0.063 N 
ENDBRANCH  34  35
ENDBRANCH  33  34
ENDBRANCH  32  33
ENDBRANCH   1  32
BRANCH   1  39
ATOM     39  C   ARG     5       7.158 -18.626   7.969  1.00  0.00     0.256 C 
ATOM     40  O   ARG     5       7.532 -19.093   6.888  1.00  0.00    -0.270 OA
ATOM     41  N   PRO     6       7.648 -17.492   8.477  1.00  0.00    -0.312 N 
ATOM     42  CA  PRO     6       8.783 -16.742   7.894  1.00  0.00     0.165 C 
ATOM     43  CD  PRO     6       7.050 -16.722   9.590  1.00  0.00     0.105 C 
ATOM     44  CB  PRO     6       9.036 -15.592   8.871  1.00  0.00     0.034 C 
ATOM     45  CG  PRO     6       7.653 -15.324   9.446  1.00  0.00     0.027 C 
BRANCH  42  46
ATOM     46  C   PRO     6      10.031 -17.630   7.758  1.00  0.00     0.272 C 
ATOM     47  N   SER     7      10.789 -17.525   6.675  1.00  0.00    -0.226 NA
ATOM     48  O   PRO     6      10.262 -18.505   8.598  1.00  0.00    -0.269 OA
BRANCH  47  49
ATOM     49  CA  SER     7      10.568 -16.621   5.521  1.00  0.00     0.219 C 
BRANCH  49  50
ATOM     50  C   SER     7      10.921 -15.161   5.857  1.00  0.00     0.277 C 
ATOM     51  O   SER     7      10.099 -14.279   5.634  1.00  0.00    -0.268 OA
ATOM     52  N   GLY     8      12.012 -14.985   6.589  1.00  0.00    -0.226 NA
BRANCH  52  53
ATOM     53  CA  GLY     8      12.598 -13.638   6.818  1.00  0.00     0.218 C 
BRANCH  53  54
ATOM     54  C   GLY     8      13.492 -13.039   5.718  1.00  0.00     0.277 C 
ATOM     55  N   GLY     9      13.191 -11.804   5.289  1.00  0.00    -0.226 NA
ATOM     56  O   GLY     8      14.454 -13.664   5.301  1.00  0.00    -0.268 OA
BRANCH  55  57
ATOM     57  CA  GLY     9      13.937 -11.121   4.213  1.00  0.00     0.218 C 
BRANCH  57  58
ATOM     58  C   GLY     9      13.984  -9.591   4.440  1.00  0.00     0.277 C 
ATOM     59  O   GLY     9      13.333  -8.856   3.709  1.00  0.00    -0.268 OA
ATOM     60  N   CYS    10      14.834  -9.036   5.293  1.00  0.00    -0.228 NA
BRANCH  60  61
ATOM     61  CA  CYS    10      15.868  -9.709   6.116  1.00  0.00     0.198 C 
BRANCH  61  62
ATOM     62  CB  CYS    10      17.222  -8.992   6.054  1.00  0.00     0.103 C 
ATOM     63  SG  CYS    10      18.562  -9.776   5.094  1.00  0.00    -0.080 SA
ENDBRANCH  61  62
BRANCH  61  64
ATOM     64  C   CYS    10      15.537  -9.769   7.609  1.00  0.00     0.275 C 
ATOM     65  O   CYS    10      14.509 -10.338   7.974  1.00  0.00    -0.268 OA
ATOM     66  N   GLY    11      16.557  -9.469   8.396  1.00  0.00    -0.225 NA
BRANCH  66  67
ATOM     67  CA  GLY    11      16.361  -8.793   9.686  1.00  0.00     0.226 C 
BRANCH  67  68
ATOM     68  C   GLY    11      16.194  -7.307   9.328  1.00  0.00     0.211 C 
ATOM     69  O2  GLY    11      17.169  -6.780   8.750  1.00  0.00    -0.646 OA
ATOM     70  O1  GLY    11      15.020  -6.874   9.297  1.00  0.00    -0.646 OA
ENDBRANCH  67  68
ENDBRANCH  66  67
ENDBRANCH  61  64
ENDBRANCH  60  61
ENDBRANCH  57  58
ENDBRANCH  55  57
ENDBRANCH  53  54
ENDBRANCH  52  53
ENDBRANCH  49  50
BRANCH  49  71
ATOM     71  CB  SER     7       9.110 -16.643   5.056  1.00  0.00     0.216 C 
ATOM     72  OG  SER     7       9.052 -16.869   3.648  1.00  0.00    -0.218 OA
ENDBRANCH  49  71
ENDBRANCH  47  49
ENDBRANCH  42  46
ENDBRANCH   1  39
TORSDOF 33
ENDMDL
MODEL 3
REMARK VINA RESULT:      -5.1     20.212     27.533
REMARK WARNING: 32 MAX_TORS EXCEEDED!!!
REMARK  33 active torsions:
REMARK  status: ('A' for Active; 'I' for Inactive)
REMARK    1  A    between atoms: CA_2  and  C_8 
REMARK    2  A    between atoms: CA_2  and  CB_3 
REMARK    3  A    between atoms: CB_3  and  CG_4 
REMARK    4  A    between atoms: CG_4  and  CD_5 
REMARK       I    between atoms: C_8  and  N_10 
REMARK    5  A    between atoms: N_10  and  CA_11 
REMARK    6  A    between atoms: CA_11  and  C_12 
REMARK       I    between atoms: C_12  and  N_14 
REMARK    7  A    between atoms: N_14  and  CA_15 
REMARK    8  A    between atoms: CA_15  and  C_20 
REMARK    9  A    between atoms: CA_15  and  CB_16 
REMARK   10  A    between atoms: CB_16  and  CG_17 
REMARK       I    between atoms: C_20  and  N_22 
REMARK   11  A    between atoms: N_22  and  CA_23 
REMARK   12  A    between atoms: CA_23  and  CB_24 
REMARK   13  A    between atoms: CA_23  and  C_28 
REMARK   14  A    between atoms: CB_24  and  CG_25 
REMARK       I    between atoms: C_28  and  N_30 
REMARK   15  A    between atoms: N_30  and  CA_31 
REMARK   16  A    between atoms: CA_31  and  CB_32 
REMARK   17  A    between atoms: CA_31  and  C_39 
REMARK   18  A    between atoms: CB_32  and  CG_33 
REMARK   19  A    between atoms: CG_33  and  CD_34 
REMARK   20  A    between atoms: CD_34  and  NE_35 
REMARK       I    between atoms: C_39  and  N_41 
REMARK   21  A    between atoms: CA_42  and  C_46 
REMARK       I    between atoms: C_46  and  N_48 
REMARK   22  A    between atoms: N_48  and  CA_49 
REMARK   23  A    between atoms: CA_49  and  C_52 
REMARK   24  A    between atoms: CA_49  and  CB_50 
REMARK       I    between atoms: C_52  and  N_54 
REMARK   25  A    between atoms: N_54  and  CA_55 
REMARK   26  A    between atoms: CA_55  and  C_56 
REMARK       I    between atoms: C_56  and  N_58 
REMARK   27  A    between atoms: N_58  and  CA_59 
REMARK   28  A    between atoms: CA_59  and  C_60 
REMARK       I    between atoms: C_60  and  N_62 
REMARK   29  A    between atoms: N_62  and  CA_63 
REMARK   30  A    between atoms: CA_63  and  CB_64 
REMARK   31  A    between atoms: CA_63  and  C_66 
REMARK       I    between atoms: C_66  and  N_68 
REMARK   32  A    between atoms: N_68  and  CA_69 
REMARK   33  A    between atoms: CA_69  and  C_70 
ROOT
ATOM      1  CA  ARG     5      -3.166   7.726   7.734  1.00  0.00     0.185 C 
ENDROOT
BRANCH   1   2
ATOM      2  N   ARG     5      -2.708   9.012   8.291  1.00  0.00    -0.229 NA
ATOM      3  C   ASN     4      -3.016   9.488   9.487  1.00  0.00     0.275 C 
ATOM      4  O   ASN     4      -3.920   9.050  10.193  1.00  0.00    -0.268 OA
BRANCH   3   5
ATOM      5  CA  ASN     4      -2.362  10.856   9.770  1.00  0.00     0.196 C 
BRANCH   5   6
ATOM      6  N   ASN     4      -1.398  11.204   8.704  1.00  0.00    -0.228 NA
ATOM      7  C   LEU     3      -0.156  11.612   8.950  1.00  0.00     0.274 C 
ATOM      8  O   LEU     3       0.338  11.738  10.075  1.00  0.00    -0.268 OA
BRANCH   7   9
ATOM      9  CA  LEU     3       0.696  11.869   7.708  1.00  0.00     0.186 C 
BRANCH   9  10
ATOM     10  N   LEU     3       2.052  12.298   8.116  1.00  0.00    -0.229 NA
ATOM     11  C   GLY     2       2.643  13.394   7.631  1.00  0.00     0.277 C 
ATOM     12  O   GLY     2       2.064  14.214   6.934  1.00  0.00    -0.268 OA
BRANCH  11  13
ATOM     13  CA  GLY     2       4.074  13.672   8.138  1.00  0.00     0.218 C 
BRANCH  13  14
ATOM     14  N   GLY     2       5.014  14.369   7.228  1.00  0.00    -0.226 NA
ATOM     15  C   GLU     1       6.059  13.744   6.673  1.00  0.00     0.289 C 
ATOM     16  O   GLU     1       6.188  12.534   6.759  1.00  0.00    -0.268 OA
BRANCH  15  17
ATOM     17  CA  GLU     1       7.067  14.575   5.836  1.00  0.00     0.381 C 
ATOM     18  N   GLU     1       6.816  16.027   5.878  1.00  0.00     0.626 N 
BRANCH  17  19
ATOM     19  CB  GLU     1       8.495  14.240   6.314  1.00  0.00     0.060 C 
BRANCH  19  20
ATOM     20  CG  GLU     1       9.644  14.212   5.294  1.00  0.00     0.100 C 
BRANCH  20  21
ATOM     21  CD  GLU     1      10.051  12.786   4.894  1.00  0.00     0.185 C 
ATOM     22  OE1 GLU     1       9.464  11.831   5.433  1.00  0.00    -0.647 OA
ATOM     23  OE2 GLU     1      10.972  12.642   4.071  1.00  0.00    -0.647 OA
ENDBRANCH  20  21
ENDBRANCH  19  20
ENDBRANCH  17  19
ENDBRANCH  15  17
ENDBRANCH  13  14
ENDBRANCH  11  13
ENDBRANCH   9  10
BRANCH   9  24
ATOM     24  CB  LEU     3       0.767  10.578   6.883  1.00  0.00     0.034 C 
BRANCH  24  25
ATOM     25  CG  LEU     3       2.098   9.818   7.030  1.00  0.00     0.002 C 
ATOM     26  CD1 LEU     3       1.817   8.326   7.197  1.00  0.00     0.000 C 
ATOM     27  CD2 LEU     3       3.005  10.049   5.816  1.00  0.00     0.000 C 
ENDBRANCH  24  25
ENDBRANCH   9  24
ENDBRANCH   7   9
ENDBRANCH   5   6
BRANCH   5  28
ATOM     28  CB  ASN     4      -3.417  11.966   9.915  1.00  0.00     0.126 C 
BRANCH  28  29
ATOM     29  CG  ASN     4      -3.781  12.653   8.584  1.00  0.00     0.276 C 
ATOM     30  ND2 ASN     4      -3.366  13.883   8.433  1.00  0.00    -0.107 N 
ATOM     31  OD1 ASN     4      -4.361  12.098   7.670  1.00  0.00    -0.269 OA
ENDBRANCH  28  29
ENDBRANCH   5  28
ENDBRANCH   3   5
ENDBRANCH   1   2
BRANCH   1  32
ATOM     32  CB  ARG     5      -3.119   7.756   6.202  1.00  0.00     0.036 C 
BRANCH  32  33
ATOM     33  CG  ARG     5      -4.019   6.715   5.535  1.00  0.00     0.029 C 
BRANCH  33  34
ATOM     34  CD  ARG     5      -4.128   7.019   4.044  1.00  0.00     0.145 C 
BRANCH  34  35
ATOM     35  NE  ARG     5      -4.206   8.476   3.780  1.00  0.00    -0.083 NA
ATOM     36  CZ  ARG     5      -5.327   9.209   3.857  1.00  0.00     0.782 C 
ATOM     37  NH2 ARG     5      -5.281  10.551   3.847  1.00  0.00     0.063 N 
ATOM     38  NH1 ARG     5      -6.507   8.644   4.072  1.00  0.00     0.063 N 
ENDBRANCH  34  35
ENDBRANCH  33  34
ENDBRANCH  32  33
ENDBRANCH   1  32
BRANCH   1  39
ATOM     39  C   ARG     5      -2.267   6.589   8.255  1.00  0.00     0.256 C 
ATOM     40  O   ARG     5      -1.039   6.690   8.168  1.00  0.00    -0.270 OA
ATOM     41  N   PRO     6      -2.868   5.573   8.882  1.00  0.00    -0.312 N 
ATOM     42  CA  PRO     6      -2.158   4.387   9.412  1.00  0.00     0.165 C 
ATOM     43  CD  PRO     6      -4.290   5.536   9.288  1.00  0.00     0.105 C 
ATOM     44  CB  PRO     6      -3.264   3.471   9.938  1.00  0.00     0.034 C 
ATOM     45  CG  PRO     6      -4.345   4.454  10.367  1.00  0.00     0.027 C 
BRANCH  42  46
ATOM     46  C   PRO     6      -1.340   3.685   8.315  1.00  0.00     0.272 C 
ATOM     47  N   SER     7      -0.083   3.343   8.558  1.00  0.00    -0.226 NA
ATOM     48  O   PRO     6      -1.818   3.540   7.186  1.00  0.00    -0.269 OA
BRANCH  47  49
ATOM     49  CA  SER     7       0.672   3.572   9.814  1.00  0.00     0.219 C 
BRANCH  49  50
ATOM     50  C   SER     7       1.657   4.747   9.688  1.00  0.00     0.277 C 
ATOM     51  O   SER     7       1.407   5.804  10.259  1.00  0.00    -0.268 OA
ATOM     52  N   GLY     8       2.836   4.458   9.156  1.00  0.00    -0.226 NA
BRANCH  52  53
ATOM     53  CA  GLY     8       3.810   5.515   8.775  1.00  0.00     0.218 C 
BRANCH  53  54
ATOM     54  C   GLY     8       5.179   5.078   8.225  1.00  0.00     0.277 C 
ATOM     55  N   GLY     9       5.997   6.044   7.781  1.00  0.00    -0.226 NA
ATOM     56  O   GLY     8       5.500   3.901   8.244  1.00  0.00    -0.268 OA
BRANCH  55  57
ATOM     57  CA  GLY     9       7.322   5.769   7.190  1.00  0.00     0.218 C 
BRANCH  57  58
ATOM     58  C   GLY     9       8.449   5.901   8.243  1.00  0.00     0.277 C 
ATOM     59  O   GLY     9       8.158   6.168   9.402  1.00  0.00    -0.268 OA
ATOM     60  N   CYS    10       9.729   5.901   7.900  1.00  0.00    -0.228 NA
BRANCH  60  61
ATOM     61  CA  CYS    10      10.308   5.820   6.537  1.00  0.00     0.198 C 
BRANCH  61  62
ATOM     62  CB  CYS    10      11.676   6.506   6.441  1.00  0.00     0.103 C 
ATOM     63  SG  CYS    10      12.613   6.766   7.985  1.00  0.00    -0.080 SA
ENDBRANCH  61  62
BRANCH  61  64
ATOM     64  C   CYS    10      10.564   4.392   6.051  1.00  0.00     0.275 C 
ATOM     65  O   CYS    10      10.786   4.194   4.858  1.00  0.00    -0.268 OA
ATOM     66  N   GLY    11      10.832   3.535   7.023  1.00  0.00    -0.225 NA
BRANCH  66  67
ATOM     67  CA  GLY    11      10.425   2.126   6.940  1.00  0.00     0.226 C 
BRANCH  67  68
ATOM     68  C   GLY    11       8.931   2.127   7.298  1.00  0.00     0.211 C 
ATOM     69  O2  GLY    11       8.654   2.508   8.456  1.00  0.00    -0.646 OA
ATOM     70  O1  GLY    11       8.131   2.118   6.334  1.00  0.00    -0.646 OA
ENDBRANCH  67  68
ENDBRANCH  66  67
ENDBRANCH  61  64
ENDBRANCH  60  61
ENDBRANCH  57  58
ENDBRANCH  55  57
ENDBRANCH  53  54
ENDBRANCH  52  53
ENDBRANCH  49  50
BRANCH  49  71
ATOM     71  CB  SER     7       1.483   2.339  10.219  1.00  0.00     0.216 C 
ATOM     72  OG  SER     7       1.371   1.331   9.214  1.00  0.00    -0.218 OA
ENDBRANCH  49  71
ENDBRANCH  47  49
ENDBRANCH  42  46
ENDBRANCH   1  39
TORSDOF 33
ENDMDL
MODEL 4
REMARK VINA RESULT:      -4.9     19.475     24.802
REMARK WARNING: 32 MAX_TORS EXCEEDED!!!
REMARK  33 active torsions:
REMARK  status: ('A' for Active; 'I' for Inactive)
REMARK    1  A    between atoms: CA_2  and  C_8 
REMARK    2  A    between atoms: CA_2  and  CB_3 
REMARK    3  A    between atoms: CB_3  and  CG_4 
REMARK    4  A    between atoms: CG_4  and  CD_5 
REMARK       I    between atoms: C_8  and  N_10 
REMARK    5  A    between atoms: N_10  and  CA_11 
REMARK    6  A    between atoms: CA_11  and  C_12 
REMARK       I    between atoms: C_12  and  N_14 
REMARK    7  A    between atoms: N_14  and  CA_15 
REMARK    8  A    between atoms: CA_15  and  C_20 
REMARK    9  A    between atoms: CA_15  and  CB_16 
REMARK   10  A    between atoms: CB_16  and  CG_17 
REMARK       I    between atoms: C_20  and  N_22 
REMARK   11  A    between atoms: N_22  and  CA_23 
REMARK   12  A    between atoms: CA_23  and  CB_24 
REMARK   13  A    between atoms: CA_23  and  C_28 
REMARK   14  A    between atoms: CB_24  and  CG_25 
REMARK       I    between atoms: C_28  and  N_30 
REMARK   15  A    between atoms: N_30  and  CA_31 
REMARK   16  A    between atoms: CA_31  and  CB_32 
REMARK   17  A    between atoms: CA_31  and  C_39 
REMARK   18  A    between atoms: CB_32  and  CG_33 
REMARK   19  A    between atoms: CG_33  and  CD_34 
REMARK   20  A    between atoms: CD_34  and  NE_35 
REMARK       I    between atoms: C_39  and  N_41 
REMARK   21  A    between atoms: CA_42  and  C_46 
REMARK       I    between atoms: C_46  and  N_48 
REMARK   22  A    between atoms: N_48  and  CA_49 
REMARK   23  A    between atoms: CA_49  and  C_52 
REMARK   24  A    between atoms: CA_49  and  CB_50 
REMARK       I    between atoms: C_52  and  N_54 
REMARK   25  A    between atoms: N_54  and  CA_55 
REMARK   26  A    between atoms: CA_55  and  C_56 
REMARK       I    between atoms: C_56  and  N_58 
REMARK   27  A    between atoms: N_58  and  CA_59 
REMARK   28  A    between atoms: CA_59  and  C_60 
REMARK       I    between atoms: C_60  and  N_62 
REMARK   29  A    between atoms: N_62  and  CA_63 
REMARK   30  A    between atoms: CA_63  and  CB_64 
REMARK   31  A    between atoms: CA_63  and  C_66 
REMARK       I    between atoms: C_66  and  N_68 
REMARK   32  A    between atoms: N_68  and  CA_69 
REMARK   33  A    between atoms: CA_69  and  C_70 
ROOT
ATOM      1  CA  ARG     5      -2.082   6.210   7.310  1.00  0.00     0.185 C 
ENDROOT
BRANCH   1   2
ATOM      2  N   ARG     5      -2.246   4.847   7.848  1.00  0.00    -0.229 NA
ATOM      3  C   ASN     4      -3.177   4.463   8.708  1.00  0.00     0.275 C 
ATOM      4  O   ASN     4      -3.870   5.234   9.364  1.00  0.00    -0.268 OA
BRANCH   3   5
ATOM      5  CA  ASN     4      -3.081   2.964   9.060  1.00  0.00     0.196 C 
BRANCH   5   6
ATOM      6  N   ASN     4      -4.384   2.295   8.856  1.00  0.00    -0.228 NA
ATOM      7  C   LEU     3      -5.037   2.310   7.696  1.00  0.00     0.274 C 
ATOM      8  O   LEU     3      -4.639   2.864   6.667  1.00  0.00    -0.268 OA
BRANCH   7   9
ATOM      9  CA  LEU     3      -6.340   1.512   7.681  1.00  0.00     0.186 C 
BRANCH   9  10
ATOM     10  N   LEU     3      -6.090   0.165   7.123  1.00  0.00    -0.229 NA
ATOM     11  C   GLY     2      -6.896  -0.409   6.225  1.00  0.00     0.277 C 
ATOM     12  O   GLY     2      -7.814   0.181   5.674  1.00  0.00    -0.268 OA
BRANCH  11  13
ATOM     13  CA  GLY     2      -6.506  -1.834   5.778  1.00  0.00     0.218 C 
BRANCH  13  14
ATOM     14  N   GLY     2      -7.561  -2.876   5.764  1.00  0.00    -0.226 NA
ATOM     15  C   GLU     1      -7.332  -4.111   5.304  1.00  0.00     0.289 C 
ATOM     16  O   GLU     1      -6.203  -4.483   5.032  1.00  0.00    -0.268 OA
BRANCH  15  17
ATOM     17  CA  GLU     1      -8.522  -5.102   5.204  1.00  0.00     0.381 C 
ATOM     18  N   GLU     1      -9.568  -4.678   4.257  1.00  0.00     0.626 N 
BRANCH  17  19
ATOM     19  CB  GLU     1      -7.971  -6.496   4.841  1.00  0.00     0.060 C 
BRANCH  19  20
ATOM     20  CG  GLU     1      -7.879  -7.577   5.929  1.00  0.00     0.100 C 
BRANCH  20  21
ATOM     21  CD  GLU     1      -8.888  -7.364   7.067  1.00  0.00     0.185 C 
ATOM     22  OE1 GLU     1      -8.473  -6.907   8.148  1.00  0.00    -0.647 OA
ATOM     23  OE2 GLU     1     -10.074  -7.685   6.874  1.00  0.00    -0.647 OA
ENDBRANCH  20  21
ENDBRANCH  19  20
ENDBRANCH  17  19
ENDBRANCH  15  17
ENDBRANCH  13  14
ENDBRANCH  11  13
ENDBRANCH   9  10
BRANCH   9  24
ATOM     24  CB  LEU     3      -6.872   1.409   9.115  1.00  0.00     0.034 C 
BRANCH  24  25
ATOM     25  CG  LEU     3      -8.389   1.646   9.235  1.00  0.00     0.002 C 
ATOM     26  CD1 LEU     3      -8.857   2.534   8.084  1.00  0.00     0.000 C 
ATOM     27  CD2 LEU     3      -9.159   0.321   9.223  1.00  0.00     0.000 C 
ENDBRANCH  24  25
ENDBRANCH   9  24
ENDBRANCH   7   9
ENDBRANCH   5   6
BRANCH   5  28
ATOM     28  CB  ASN     4      -1.988   2.261   8.237  1.00  0.00     0.126 C 
BRANCH  28  29
ATOM     29  CG  ASN     4      -0.832   1.706   9.091  1.00  0.00     0.276 C 
ATOM     30  ND2 ASN     4      -1.165   0.918  10.077  1.00  0.00    -0.107 N 
ATOM     31  OD1 ASN     4       0.344   1.910   8.855  1.00  0.00    -0.269 OA
ENDBRANCH  28  29
ENDBRANCH   5  28
ENDBRANCH   3   5
ENDBRANCH   1   2
BRANCH   1  32
ATOM     32  CB  ARG     5      -3.433   6.776   6.861  1.00  0.00     0.036 C 
BRANCH  32  33
ATOM     33  CG  ARG     5      -4.008   6.094   5.619  1.00  0.00     0.029 C 
BRANCH  33  34
ATOM     34  CD  ARG     5      -4.161   7.120   4.501  1.00  0.00     0.145 C 
BRANCH  34  35
ATOM     35  NE  ARG     5      -5.312   8.025   4.732  1.00  0.00    -0.083 NA
ATOM     36  CZ  ARG     5      -5.216   9.345   4.953  1.00  0.00     0.782 C 
ATOM     37  NH2 ARG     5      -6.300  10.137   4.909  1.00  0.00     0.063 N 
ATOM     38  NH1 ARG     5      -4.039   9.936   5.098  1.00  0.00     0.063 N 
ENDBRANCH  34  35
ENDBRANCH  33  34
ENDBRANCH  32  33
ENDBRANCH   1  32
BRANCH   1  39
ATOM     39  C   ARG     5      -1.475   7.122   8.393  1.00  0.00     0.256 C 
ATOM     40  O   ARG     5      -2.145   8.048   8.860  1.00  0.00    -0.270 OA
ATOM     41  N   PRO     6      -0.265   6.797   8.857  1.00  0.00    -0.312 N 
ATOM     42  CA  PRO     6       0.475   7.582   9.870  1.00  0.00     0.165 C 
ATOM     43  CD  PRO     6       0.457   5.539   8.566  1.00  0.00     0.105 C 
ATOM     44  CB  PRO     6       1.829   6.881   9.997  1.00  0.00     0.034 C 
ATOM     45  CG  PRO     6       1.493   5.430   9.686  1.00  0.00     0.027 C 
BRANCH  42  46
ATOM     46  C   PRO     6       0.653   9.044   9.427  1.00  0.00     0.272 C 
ATOM     47  N   SER     7       1.559   9.339   8.504  1.00  0.00    -0.226 NA
ATOM     48  O   PRO     6       0.035   9.944  10.003  1.00  0.00    -0.269 OA
BRANCH  47  49
ATOM     49  CA  SER     7       2.470   8.390   7.820  1.00  0.00     0.219 C 
BRANCH  49  50
ATOM     50  C   SER     7       3.947   8.791   7.983  1.00  0.00     0.277 C 
ATOM     51  O   SER     7       4.810   7.920   7.974  1.00  0.00    -0.268 OA
ATOM     52  N   GLY     8       4.207  10.088   7.888  1.00  0.00    -0.226 NA
BRANCH  52  53
ATOM     53  CA  GLY     8       5.540  10.651   8.229  1.00  0.00     0.218 C 
BRANCH  53  54
ATOM     54  C   GLY     8       5.710  12.180   8.204  1.00  0.00     0.277 C 
ATOM     55  N   GLY     9       6.633  12.680   7.369  1.00  0.00    -0.226 NA
ATOM     56  O   GLY     8       4.993  12.888   8.892  1.00  0.00    -0.268 OA
BRANCH  55  57
ATOM     57  CA  GLY     9       6.932  14.123   7.268  1.00  0.00     0.218 C 
BRANCH  57  58
ATOM     58  C   GLY     9       6.431  14.712   5.928  1.00  0.00     0.277 C 
ATOM     59  O   GLY     9       7.153  14.656   4.941  1.00  0.00    -0.268 OA
ATOM     60  N   CYS    10       5.316  15.425   5.851  1.00  0.00    -0.228 NA
BRANCH  60  61
ATOM     61  CA  CYS    10       4.404  15.813   6.954  1.00  0.00     0.198 C 
BRANCH  61  62
ATOM     62  CB  CYS    10       4.403  17.325   7.209  1.00  0.00     0.103 C 
ATOM     63  SG  CYS    10       3.294  17.974   8.505  1.00  0.00    -0.080 SA
ENDBRANCH  61  62
BRANCH  61  64
ATOM     64  C   CYS    10       2.935  15.468   6.700  1.00  0.00     0.275 C 
ATOM     65  O   CYS    10       2.400  15.847   5.660  1.00  0.00    -0.268 OA
ATOM     66  N   GLY    11       2.463  14.519   7.492  1.00  0.00    -0.225 NA
BRANCH  66  67
ATOM     67  CA  GLY    11       1.061  14.512   7.934  1.00  0.00     0.226 C 
BRANCH  67  68
ATOM     68  C   GLY    11       0.841  13.109   8.520  1.00  0.00     0.211 C 
ATOM     69  O2  GLY    11       0.006  12.399   7.919  1.00  0.00    -0.646 OA
ATOM     70  O1  GLY    11       1.743  12.677   9.273  1.00  0.00    -0.646 OA
ENDBRANCH  67  68
ENDBRANCH  66  67
ENDBRANCH  61  64
ENDBRANCH  60  61
ENDBRANCH  57  58
ENDBRANCH  55  57
ENDBRANCH  53  54
ENDBRANCH  52  53
ENDBRANCH  49  50
BRANCH  49  71
ATOM     71  CB  SER     7       2.182   8.312   6.319  1.00  0.00     0.216 C 
ATOM     72  OG  SER     7       2.358   6.971   5.859  1.00  0.00    -0.218 OA
ENDBRANCH  49  71
ENDBRANCH  47  49
ENDBRANCH  42  46
ENDBRANCH   1  39
TORSDOF 33
ENDMDL
MODEL 5
REMARK VINA RESULT:      -4.9     22.834     28.163
REMARK WARNING: 32 MAX_TORS EXCEEDED!!!
REMARK  33 active torsions:
REMARK  status: ('A' for Active; 'I' for Inactive)
REMARK    1  A    between atoms: CA_2  and  C_8 
REMARK    2  A    between atoms: CA_2  and  CB_3 
REMARK    3  A    between atoms: CB_3  and  CG_4 
REMARK    4  A    between atoms: CG_4  and  CD_5 
REMARK       I    between atoms: C_8  and  N_10 
REMARK    5  A    between atoms: N_10  and  CA_11 
REMARK    6  A    between atoms: CA_11  and  C_12 
REMARK       I    between atoms: C_12  and  N_14 
REMARK    7  A    between atoms: N_14  and  CA_15 
REMARK    8  A    between atoms: CA_15  and  C_20 
REMARK    9  A    between atoms: CA_15  and  CB_16 
REMARK   10  A    between atoms: CB_16  and  CG_17 
REMARK       I    between atoms: C_20  and  N_22 
REMARK   11  A    between atoms: N_22  and  CA_23 
REMARK   12  A    between atoms: CA_23  and  CB_24 
REMARK   13  A    between atoms: CA_23  and  C_28 
REMARK   14  A    between atoms: CB_24  and  CG_25 
REMARK       I    between atoms: C_28  and  N_30 
REMARK   15  A    between atoms: N_30  and  CA_31 
REMARK   16  A    between atoms: CA_31  and  CB_32 
REMARK   17  A    between atoms: CA_31  and  C_39 
REMARK   18  A    between atoms: CB_32  and  CG_33 
REMARK   19  A    between atoms: CG_33  and  CD_34 
REMARK   20  A    between atoms: CD_34  and  NE_35 
REMARK       I    between atoms: C_39  and  N_41 
REMARK   21  A    between atoms: CA_42  and  C_46 
REMARK       I    between atoms: C_46  and  N_48 
REMARK   22  A    between atoms: N_48  and  CA_49 
REMARK   23  A    between atoms: CA_49  and  C_52 
REMARK   24  A    between atoms: CA_49  and  CB_50 
REMARK       I    between atoms: C_52  and  N_54 
REMARK   25  A    between atoms: N_54  and  CA_55 
REMARK   26  A    between atoms: CA_55  and  C_56 
REMARK       I    between atoms: C_56  and  N_58 
REMARK   27  A    between atoms: N_58  and  CA_59 
REMARK   28  A    between atoms: CA_59  and  C_60 
REMARK       I    between atoms: C_60  and  N_62 
REMARK   29  A    between atoms: N_62  and  CA_63 
REMARK   30  A    between atoms: CA_63  and  CB_64 
REMARK   31  A    between atoms: CA_63  and  C_66 
REMARK       I    between atoms: C_66  and  N_68 
REMARK   32  A    between atoms: N_68  and  CA_69 
REMARK   33  A    between atoms: CA_69  and  C_70 
ROOT
ATOM      1  CA  ARG     5      -2.112   9.928   7.445  1.00  0.00     0.185 C 
ENDROOT
BRANCH   1   2
ATOM      2  N   ARG     5      -2.320   8.478   7.280  1.00  0.00    -0.229 NA
ATOM      3  C   ASN     4      -2.251   7.573   8.245  1.00  0.00     0.275 C 
ATOM      4  O   ASN     4      -1.760   7.780   9.350  1.00  0.00    -0.268 OA
BRANCH   3   5
ATOM      5  CA  ASN     4      -2.534   6.143   7.741  1.00  0.00     0.196 C 
BRANCH   5   6
ATOM      6  N   ASN     4      -2.092   5.142   8.735  1.00  0.00    -0.228 NA
ATOM      7  C   LEU     3      -1.507   3.994   8.403  1.00  0.00     0.274 C 
ATOM      8  O   LEU     3      -1.259   3.634   7.248  1.00  0.00    -0.268 OA
BRANCH   7   9
ATOM      9  CA  LEU     3      -1.078   3.124   9.584  1.00  0.00     0.186 C 
BRANCH   9  10
ATOM     10  N   LEU     3      -2.274   2.529  10.221  1.00  0.00    -0.229 NA
ATOM     11  C   GLY     2      -3.028   1.602   9.623  1.00  0.00     0.277 C 
ATOM     12  O   GLY     2      -2.714   1.057   8.576  1.00  0.00    -0.268 OA
BRANCH  11  13
ATOM     13  CA  GLY     2      -4.260   1.117  10.417  1.00  0.00     0.218 C 
BRANCH  13  14
ATOM     14  N   GLY     2      -5.373   0.489   9.664  1.00  0.00    -0.226 NA
ATOM     15  C   GLU     1      -6.394   1.205   9.179  1.00  0.00     0.289 C 
ATOM     16  O   GLU     1      -6.370   2.424   9.189  1.00  0.00    -0.268 OA
BRANCH  15  17
ATOM     17  CA  GLU     1      -7.581   0.456   8.516  1.00  0.00     0.381 C 
ATOM     18  N   GLU     1      -8.511  -0.153   9.483  1.00  0.00     0.626 N 
BRANCH  17  19
ATOM     19  CB  GLU     1      -8.313   1.433   7.574  1.00  0.00     0.060 C 
BRANCH  19  20
ATOM     20  CG  GLU     1      -8.600   1.011   6.125  1.00  0.00     0.100 C 
BRANCH  20  21
ATOM     21  CD  GLU     1      -7.508   1.466   5.145  1.00  0.00     0.185 C 
ATOM     22  OE1 GLU     1      -6.349   1.049   5.317  1.00  0.00    -0.647 OA
ATOM     23  OE2 GLU     1      -7.819   2.258   4.238  1.00  0.00    -0.647 OA
ENDBRANCH  20  21
ENDBRANCH  19  20
ENDBRANCH  17  19
ENDBRANCH  15  17
ENDBRANCH  13  14
ENDBRANCH  11  13
ENDBRANCH   9  10
BRANCH   9  24
ATOM     24  CB  LEU     3      -0.139   2.025   9.072  1.00  0.00     0.034 C 
BRANCH  24  25
ATOM     25  CG  LEU     3       1.275   2.083   9.678  1.00  0.00     0.002 C 
ATOM     26  CD1 LEU     3       2.133   0.973   9.074  1.00  0.00     0.000 C 
ATOM     27  CD2 LEU     3       1.929   3.447   9.431  1.00  0.00     0.000 C 
ENDBRANCH  24  25
ENDBRANCH   9  24
ENDBRANCH   7   9
ENDBRANCH   5   6
BRANCH   5  28
ATOM     28  CB  ASN     4      -4.024   5.945   7.415  1.00  0.00     0.126 C 
BRANCH  28  29
ATOM     29  CG  ASN     4      -4.273   5.123   6.135  1.00  0.00     0.276 C 
ATOM     30  ND2 ASN     4      -4.567   3.861   6.304  1.00  0.00    -0.107 N 
ATOM     31  OD1 ASN     4      -4.274   5.596   5.014  1.00  0.00    -0.269 OA
ENDBRANCH  28  29
ENDBRANCH   5  28
ENDBRANCH   3   5
ENDBRANCH   1   2
BRANCH   1  32
ATOM     32  CB  ARG     5      -1.062  10.437   6.452  1.00  0.00     0.036 C 
BRANCH  32  33
ATOM     33  CG  ARG     5       0.304  10.713   7.082  1.00  0.00     0.029 C 
BRANCH  33  34
ATOM     34  CD  ARG     5       1.318   9.701   6.559  1.00  0.00     0.145 C 
BRANCH  34  35
ATOM     35  NE  ARG     5       1.974   8.954   7.660  1.00  0.00    -0.083 NA
ATOM     36  CZ  ARG     5       1.877   7.630   7.850  1.00  0.00     0.782 C 
ATOM     37  NH2 ARG     5       2.687   6.992   8.710  1.00  0.00     0.063 N 
ATOM     38  NH1 ARG     5       1.070   6.884   7.110  1.00  0.00     0.063 N 
ENDBRANCH  34  35
ENDBRANCH  33  34
ENDBRANCH  32  33
ENDBRANCH   1  32
BRANCH   1  39
ATOM     39  C   ARG     5      -3.442  10.669   7.214  1.00  0.00     0.256 C 
ATOM     40  O   ARG     5      -3.658  11.737   7.795  1.00  0.00    -0.270 OA
ATOM     41  N   PRO     6      -4.274  10.160   6.300  1.00  0.00    -0.312 N 
ATOM     42  CA  PRO     6      -5.604  10.726   5.979  1.00  0.00     0.165 C 
ATOM     43  CD  PRO     6      -3.948   9.068   5.357  1.00  0.00     0.105 C 
ATOM     44  CB  PRO     6      -6.208   9.755   4.964  1.00  0.00     0.034 C 
ATOM     45  CG  PRO     6      -4.984   9.211   4.241  1.00  0.00     0.027 C 
BRANCH  42  46
ATOM     46  C   PRO     6      -6.487  10.829   7.234  1.00  0.00     0.272 C 
ATOM     47  N   SER     7      -7.118  11.965   7.494  1.00  0.00    -0.226 NA
ATOM     48  O   PRO     6      -6.520   9.897   8.043  1.00  0.00    -0.269 OA
BRANCH  47  49
ATOM     49  CA  SER     7      -7.069  13.212   6.693  1.00  0.00     0.219 C 
BRANCH  49  50
ATOM     50  C   SER     7      -6.361  14.352   7.445  1.00  0.00     0.277 C 
ATOM     51  O   SER     7      -6.587  14.515   8.639  1.00  0.00    -0.268 OA
ATOM     52  N   GLY     8      -5.366  14.942   6.796  1.00  0.00    -0.226 NA
BRANCH  52  53
ATOM     53  CA  GLY     8      -4.728  16.187   7.297  1.00  0.00     0.218 C 
BRANCH  53  54
ATOM     54  C   GLY     8      -3.326  16.083   7.925  1.00  0.00     0.277 C 
ATOM     55  N   GLY     9      -2.714  17.231   8.250  1.00  0.00    -0.226 NA
ATOM     56  O   GLY     8      -2.834  14.989   8.147  1.00  0.00    -0.268 OA
BRANCH  55  57
ATOM     57  CA  GLY     9      -1.353  17.285   8.822  1.00  0.00     0.218 C 
BRANCH  57  58
ATOM     58  C   GLY     9      -0.535  18.455   8.226  1.00  0.00     0.277 C 
ATOM     59  O   GLY     9      -0.721  19.591   8.643  1.00  0.00    -0.268 OA
ATOM     60  N   CYS    10       0.242  18.295   7.164  1.00  0.00    -0.228 NA
BRANCH  60  61
ATOM     61  CA  CYS    10       0.444  17.065   6.359  1.00  0.00     0.198 C 
BRANCH  61  62
ATOM     62  CB  CYS    10       0.475  17.351   4.853  1.00  0.00     0.103 C 
ATOM     63  SG  CYS    10       0.739  19.075   4.315  1.00  0.00    -0.080 SA
ENDBRANCH  61  62
BRANCH  61  64
ATOM     64  C   CYS    10       1.766  16.347   6.638  1.00  0.00     0.275 C 
ATOM     65  O   CYS    10       2.825  16.953   6.482  1.00  0.00    -0.268 OA
ATOM     66  N   GLY    11       1.630  15.225   7.327  1.00  0.00    -0.225 NA
BRANCH  66  67
ATOM     67  CA  GLY    11       2.527  14.080   7.116  1.00  0.00     0.226 C 
BRANCH  67  68
ATOM     68  C   GLY    11       2.487  13.301   8.440  1.00  0.00     0.211 C 
ATOM     69  O2  GLY    11       3.244  12.309   8.504  1.00  0.00    -0.646 OA
ATOM     70  O1  GLY    11       2.018  13.912   9.427  1.00  0.00    -0.646 OA
ENDBRANCH  67  68
ENDBRANCH  66  67
ENDBRANCH  61  64
ENDBRANCH  60  61
ENDBRANCH  57  58
ENDBRANCH  55  57
ENDBRANCH  53  54
ENDBRANCH  52  53
ENDBRANCH  49  50
BRANCH  49  71
ATOM     71  CB  SER     7      -8.471  13.706   6.329  1.00  0.00     0.216 C 
ATOM     72  OG  SER     7      -8.404  14.558   5.185  1.00  0.00    -0.218 OA
ENDBRANCH  49  71
ENDBRANCH  47  49
ENDBRANCH  42  46
ENDBRANCH   1  39
TORSDOF 33
ENDMDL
MODEL 6
REMARK VINA RESULT:      -4.8     22.678     28.046
REMARK WARNING: 32 MAX_TORS EXCEEDED!!!
REMARK  33 active torsions:
REMARK  status: ('A' for Active; 'I' for Inactive)
REMARK    1  A    between atoms: CA_2  and  C_8 
REMARK    2  A    between atoms: CA_2  and  CB_3 
REMARK    3  A    between atoms: CB_3  and  CG_4 
REMARK    4  A    between atoms: CG_4  and  CD_5 
REMARK       I    between atoms: C_8  and  N_10 
REMARK    5  A    between atoms: N_10  and  CA_11 
REMARK    6  A    between atoms: CA_11  and  C_12 
REMARK       I    between atoms: C_12  and  N_14 
REMARK    7  A    between atoms: N_14  and  CA_15 
REMARK    8  A    between atoms: CA_15  and  C_20 
REMARK    9  A    between atoms: CA_15  and  CB_16 
REMARK   10  A    between atoms: CB_16  and  CG_17 
REMARK       I    between atoms: C_20  and  N_22 
REMARK   11  A    between atoms: N_22  and  CA_23 
REMARK   12  A    between atoms: CA_23  and  CB_24 
REMARK   13  A    between atoms: CA_23  and  C_28 
REMARK   14  A    between atoms: CB_24  and  CG_25 
REMARK       I    between atoms: C_28  and  N_30 
REMARK   15  A    between atoms: N_30  and  CA_31 
REMARK   16  A    between atoms: CA_31  and  CB_32 
REMARK   17  A    between atoms: CA_31  and  C_39 
REMARK   18  A    between atoms: CB_32  and  CG_33 
REMARK   19  A    between atoms: CG_33  and  CD_34 
REMARK   20  A    between atoms: CD_34  and  NE_35 
REMARK       I    between atoms: C_39  and  N_41 
REMARK   21  A    between atoms: CA_42  and  C_46 
REMARK       I    between atoms: C_46  and  N_48 
REMARK   22  A    between atoms: N_48  and  CA_49 
REMARK   23  A    between atoms: CA_49  and  C_52 
REMARK   24  A    between atoms: CA_49  and  CB_50 
REMARK       I    between atoms: C_52  and  N_54 
REMARK   25  A    between atoms: N_54  and  CA_55 
REMARK   26  A    between atoms: CA_55  and  C_56 
REMARK       I    between atoms: C_56  and  N_58 
REMARK   27  A    between atoms: N_58  and  CA_59 
REMARK   28  A    between atoms: CA_59  and  C_60 
REMARK       I    between atoms: C_60  and  N_62 
REMARK   29  A    between atoms: N_62  and  CA_63 
REMARK   30  A    between atoms: CA_63  and  CB_64 
REMARK   31  A    between atoms: CA_63  and  C_66 
REMARK       I    between atoms: C_66  and  N_68 
REMARK   32  A    between atoms: N_68  and  CA_69 
REMARK   33  A    between atoms: CA_69  and  C_70 
ROOT
ATOM      1  CA  ARG     5      -2.376   9.839   7.428  1.00  0.00     0.185 C 
ENDROOT
BRANCH   1   2
ATOM      2  N   ARG     5      -2.639   8.419   7.128  1.00  0.00    -0.229 NA
ATOM      3  C   ASN     4      -2.245   7.390   7.862  1.00  0.00     0.275 C 
ATOM      4  O   ASN     4      -1.398   7.458   8.747  1.00  0.00    -0.268 OA
BRANCH   3   5
ATOM      5  CA  ASN     4      -2.696   6.035   7.277  1.00  0.00     0.196 C 
BRANCH   5   6
ATOM      6  N   ASN     4      -2.714   4.994   8.327  1.00  0.00    -0.228 NA
ATOM      7  C   LEU     3      -2.068   3.836   8.216  1.00  0.00     0.274 C 
ATOM      8  O   LEU     3      -1.382   3.499   7.246  1.00  0.00    -0.268 OA
BRANCH   7   9
ATOM      9  CA  LEU     3      -2.172   2.921   9.435  1.00  0.00     0.186 C 
BRANCH   9  10
ATOM     10  N   LEU     3      -3.483   2.235   9.431  1.00  0.00    -0.229 NA
ATOM     11  C   GLY     2      -3.752   1.190   8.644  1.00  0.00     0.277 C 
ATOM     12  O   GLY     2      -2.902   0.615   7.979  1.00  0.00    -0.268 OA
BRANCH  11  13
ATOM     13  CA  GLY     2      -5.183   0.620   8.741  1.00  0.00     0.218 C 
BRANCH  13  14
ATOM     14  N   GLY     2      -6.236   1.229   7.893  1.00  0.00    -0.226 NA
ATOM     15  C   GLU     1      -6.366   0.927   6.596  1.00  0.00     0.289 C 
ATOM     16  O   GLU     1      -5.730   0.014   6.095  1.00  0.00    -0.268 OA
BRANCH  15  17
ATOM     17  CA  GLU     1      -7.410   1.703   5.750  1.00  0.00     0.381 C 
ATOM     18  N   GLU     1      -6.867   2.244   4.491  1.00  0.00     0.626 N 
BRANCH  17  19
ATOM     19  CB  GLU     1      -8.615   0.777   5.487  1.00  0.00     0.060 C 
BRANCH  19  20
ATOM     20  CG  GLU     1      -9.025  -0.248   6.556  1.00  0.00     0.100 C 
BRANCH  20  21
ATOM     21  CD  GLU     1      -8.973  -1.695   6.044  1.00  0.00     0.185 C 
ATOM     22  OE1 GLU     1      -9.490  -1.951   4.942  1.00  0.00    -0.647 OA
ATOM     23  OE2 GLU     1      -8.445  -2.559   6.766  1.00  0.00    -0.647 OA
ENDBRANCH  20  21
ENDBRANCH  19  20
ENDBRANCH  17  19
ENDBRANCH  15  17
ENDBRANCH  13  14
ENDBRANCH  11  13
ENDBRANCH   9  10
BRANCH   9  24
ATOM     24  CB  LEU     3      -1.030   1.898   9.382  1.00  0.00     0.034 C 
BRANCH  24  25
ATOM     25  CG  LEU     3       0.035   2.098  10.476  1.00  0.00     0.002 C 
ATOM     26  CD1 LEU     3       1.226   1.181  10.199  1.00  0.00     0.000 C 
ATOM     27  CD2 LEU     3       0.499   3.557  10.537  1.00  0.00     0.000 C 
ENDBRANCH  24  25
ENDBRANCH   9  24
ENDBRANCH   7   9
ENDBRANCH   5   6
BRANCH   5  28
ATOM     28  CB  ASN     4      -4.078   6.141   6.610  1.00  0.00     0.126 C 
BRANCH  28  29
ATOM     29  CG  ASN     4      -4.221   5.279   5.341  1.00  0.00     0.276 C 
ATOM     30  ND2 ASN     4      -4.348   5.924   4.213  1.00  0.00    -0.107 N 
ATOM     31  OD1 ASN     4      -4.158   4.064   5.336  1.00  0.00    -0.269 OA
ENDBRANCH  28  29
ENDBRANCH   5  28
ENDBRANCH   3   5
ENDBRANCH   1   2
BRANCH   1  32
ATOM     32  CB  ARG     5      -1.286  10.391   6.503  1.00  0.00     0.036 C 
BRANCH  32  33
ATOM     33  CG  ARG     5      -0.189  11.166   7.234  1.00  0.00     0.029 C 
BRANCH  33  34
ATOM     34  CD  ARG     5       1.153  10.905   6.557  1.00  0.00     0.145 C 
BRANCH  34  35
ATOM     35  NE  ARG     5       1.274   9.504   6.087  1.00  0.00    -0.083 NA
ATOM     36  CZ  ARG     5       2.269   8.668   6.419  1.00  0.00     0.782 C 
ATOM     37  NH2 ARG     5       2.186   7.352   6.160  1.00  0.00     0.063 N 
ATOM     38  NH1 ARG     5       3.311   9.082   7.126  1.00  0.00     0.063 N 
ENDBRANCH  34  35
ENDBRANCH  33  34
ENDBRANCH  32  33
ENDBRANCH   1  32
BRANCH   1  39
ATOM     39  C   ARG     5      -3.670  10.653   7.242  1.00  0.00     0.256 C 
ATOM     40  O   ARG     5      -3.876  11.646   7.947  1.00  0.00    -0.270 OA
ATOM     41  N   PRO     6      -4.478  10.297   6.238  1.00  0.00    -0.312 N 
ATOM     42  CA  PRO     6      -5.773  10.949   5.942  1.00  0.00     0.165 C 
ATOM     43  CD  PRO     6      -4.147   9.320   5.177  1.00  0.00     0.105 C 
ATOM     44  CB  PRO     6      -6.364  10.138   4.787  1.00  0.00     0.034 C 
ATOM     45  CG  PRO     6      -5.128   9.644   4.049  1.00  0.00     0.027 C 
BRANCH  42  46
ATOM     46  C   PRO     6      -6.706  10.924   7.164  1.00  0.00     0.272 C 
ATOM     47  N   SER     7      -7.419  12.003   7.459  1.00  0.00    -0.226 NA
ATOM     48  O   PRO     6      -6.708   9.949   7.920  1.00  0.00    -0.269 OA
BRANCH  47  49
ATOM     49  CA  SER     7      -7.422  13.293   6.729  1.00  0.00     0.219 C 
BRANCH  49  50
ATOM     50  C   SER     7      -6.449  14.309   7.352  1.00  0.00     0.277 C 
ATOM     51  O   SER     7      -6.149  14.205   8.536  1.00  0.00    -0.268 OA
ATOM     52  N   GLY     8      -5.814  15.099   6.497  1.00  0.00    -0.226 NA
BRANCH  52  53
ATOM     53  CA  GLY     8      -5.008  16.263   6.950  1.00  0.00     0.218 C 
BRANCH  53  54
ATOM     54  C   GLY     8      -3.750  16.634   6.143  1.00  0.00     0.277 C 
ATOM     55  N   GLY     9      -2.683  17.060   6.835  1.00  0.00    -0.226 NA
ATOM     56  O   GLY     8      -3.737  16.497   4.931  1.00  0.00    -0.268 OA
BRANCH  55  57
ATOM     57  CA  GLY     9      -1.424  17.486   6.191  1.00  0.00     0.218 C 
BRANCH  57  58
ATOM     58  C   GLY     9      -0.423  18.052   7.227  1.00  0.00     0.277 C 
ATOM     59  O   GLY     9      -0.575  19.191   7.649  1.00  0.00    -0.268 OA
ATOM     60  N   CYS    10       0.690  17.406   7.548  1.00  0.00    -0.228 NA
BRANCH  60  61
ATOM     61  CA  CYS    10       1.192  16.124   6.996  1.00  0.00     0.198 C 
BRANCH  61  62
ATOM     62  CB  CYS    10       2.696  16.164   6.700  1.00  0.00     0.103 C 
ATOM     63  SG  CYS    10       3.221  16.463   4.977  1.00  0.00    -0.080 SA
ENDBRANCH  61  62
BRANCH  61  64
ATOM     64  C   CYS    10       1.020  14.929   7.936  1.00  0.00     0.275 C 
ATOM     65  O   CYS    10      -0.086  14.700   8.421  1.00  0.00    -0.268 OA
ATOM     66  N   GLY    11       2.021  14.065   7.891  1.00  0.00    -0.225 NA
BRANCH  66  67
ATOM     67  CA  GLY    11       2.439  13.309   9.081  1.00  0.00     0.226 C 
BRANCH  67  68
ATOM     68  C   GLY    11       3.787  12.681   8.694  1.00  0.00     0.211 C 
ATOM     69  O2  GLY    11       4.074  12.730   7.478  1.00  0.00    -0.646 OA
ATOM     70  O1  GLY    11       4.613  12.530   9.622  1.00  0.00    -0.646 OA
ENDBRANCH  67  68
ENDBRANCH  66  67
ENDBRANCH  61  64
ENDBRANCH  60  61
ENDBRANCH  57  58
ENDBRANCH  55  57
ENDBRANCH  53  54
ENDBRANCH  52  53
ENDBRANCH  49  50
BRANCH  49  71
ATOM     71  CB  SER     7      -8.810  13.936   6.722  1.00  0.00     0.216 C 
ATOM     72  OG  SER     7      -9.137  14.373   5.402  1.00  0.00    -0.218 OA
ENDBRANCH  49  71
ENDBRANCH  47  49
ENDBRANCH  42  46
ENDBRANCH   1  39
TORSDOF 33
ENDMDL
MODEL 7
REMARK VINA RESULT:      -4.8     22.462     27.869
REMARK WARNING: 32 MAX_TORS EXCEEDED!!!
REMARK  33 active torsions:
REMARK  status: ('A' for Active; 'I' for Inactive)
REMARK    1  A    between atoms: CA_2  and  C_8 
REMARK    2  A    between atoms: CA_2  and  CB_3 
REMARK    3  A    between atoms: CB_3  and  CG_4 
REMARK    4  A    between atoms: CG_4  and  CD_5 
REMARK       I    between atoms: C_8  and  N_10 
REMARK    5  A    between atoms: N_10  and  CA_11 
REMARK    6  A    between atoms: CA_11  and  C_12 
REMARK       I    between atoms: C_12  and  N_14 
REMARK    7  A    between atoms: N_14  and  CA_15 
REMARK    8  A    between atoms: CA_15  and  C_20 
REMARK    9  A    between atoms: CA_15  and  CB_16 
REMARK   10  A    between atoms: CB_16  and  CG_17 
REMARK       I    between atoms: C_20  and  N_22 
REMARK   11  A    between atoms: N_22  and  CA_23 
REMARK   12  A    between atoms: CA_23  and  CB_24 
REMARK   13  A    between atoms: CA_23  and  C_28 
REMARK   14  A    between atoms: CB_24  and  CG_25 
REMARK       I    between atoms: C_28  and  N_30 
REMARK   15  A    between atoms: N_30  and  CA_31 
REMARK   16  A    between atoms: CA_31  and  CB_32 
REMARK   17  A    between atoms: CA_31  and  C_39 
REMARK   18  A    between atoms: CB_32  and  CG_33 
REMARK   19  A    between atoms: CG_33  and  CD_34 
REMARK   20  A    between atoms: CD_34  and  NE_35 
REMARK       I    between atoms: C_39  and  N_41 
REMARK   21  A    between atoms: CA_42  and  C_46 
REMARK       I    between atoms: C_46  and  N_48 
REMARK   22  A    between atoms: N_48  and  CA_49 
REMARK   23  A    between atoms: CA_49  and  C_52 
REMARK   24  A    between atoms: CA_49  and  CB_50 
REMARK       I    between atoms: C_52  and  N_54 
REMARK   25  A    between atoms: N_54  and  CA_55 
REMARK   26  A    between atoms: CA_55  and  C_56 
REMARK       I    between atoms: C_56  and  N_58 
REMARK   27  A    between atoms: N_58  and  CA_59 
REMARK   28  A    between atoms: CA_59  and  C_60 
REMARK       I    between atoms: C_60  and  N_62 
REMARK   29  A    between atoms: N_62  and  CA_63 
REMARK   30  A    between atoms: CA_63  and  CB_64 
REMARK   31  A    between atoms: CA_63  and  C_66 
REMARK       I    between atoms: C_66  and  N_68 
REMARK   32  A    between atoms: N_68  and  CA_69 
REMARK   33  A    between atoms: CA_69  and  C_70 
ROOT
ATOM      1  CA  ARG     5      -2.207   9.885   7.356  1.00  0.00     0.185 C 
ENDROOT
BRANCH   1   2
ATOM      2  N   ARG     5      -2.428   8.436   7.199  1.00  0.00    -0.229 NA
ATOM      3  C   ASN     4      -2.330   7.531   8.161  1.00  0.00     0.275 C 
ATOM      4  O   ASN     4      -1.798   7.735   9.248  1.00  0.00    -0.268 OA
BRANCH   3   5
ATOM      5  CA  ASN     4      -2.639   6.102   7.668  1.00  0.00     0.196 C 
BRANCH   5   6
ATOM      6  N   ASN     4      -2.232   5.102   8.678  1.00  0.00    -0.228 NA
ATOM      7  C   LEU     3      -1.595   3.975   8.372  1.00  0.00     0.274 C 
ATOM      8  O   LEU     3      -1.265   3.636   7.231  1.00  0.00    -0.268 OA
BRANCH   7   9
ATOM      9  CA  LEU     3      -1.216   3.103   9.568  1.00  0.00     0.186 C 
BRANCH   9  10
ATOM     10  N   LEU     3      -2.443   2.568  10.200  1.00  0.00    -0.229 NA
ATOM     11  C   GLY     2      -3.282   1.742   9.569  1.00  0.00     0.277 C 
ATOM     12  O   GLY     2      -3.035   1.236   8.484  1.00  0.00    -0.268 OA
BRANCH  11  13
ATOM     13  CA  GLY     2      -4.533   1.311  10.364  1.00  0.00     0.218 C 
BRANCH  13  14
ATOM     14  N   GLY     2      -5.857   1.781   9.891  1.00  0.00    -0.226 NA
ATOM     15  C   GLU     1      -6.868   0.936   9.658  1.00  0.00     0.289 C 
ATOM     16  O   GLU     1      -6.796  -0.238   9.982  1.00  0.00    -0.268 OA
BRANCH  15  17
ATOM     17  CA  GLU     1      -8.179   1.493   9.042  1.00  0.00     0.381 C 
ATOM     18  N   GLU     1      -8.154   2.948   8.813  1.00  0.00     0.626 N 
BRANCH  17  19
ATOM     19  CB  GLU     1      -8.473   0.725   7.737  1.00  0.00     0.060 C 
BRANCH  19  20
ATOM     20  CG  GLU     1      -8.350   1.454   6.390  1.00  0.00     0.100 C 
BRANCH  20  21
ATOM     21  CD  GLU     1      -7.034   1.140   5.662  1.00  0.00     0.185 C 
ATOM     22  OE1 GLU     1      -6.847   1.641   4.538  1.00  0.00    -0.647 OA
ATOM     23  OE2 GLU     1      -6.222   0.375   6.210  1.00  0.00    -0.647 OA
ENDBRANCH  20  21
ENDBRANCH  19  20
ENDBRANCH  17  19
ENDBRANCH  15  17
ENDBRANCH  13  14
ENDBRANCH  11  13
ENDBRANCH   9  10
BRANCH   9  24
ATOM     24  CB  LEU     3      -0.320   1.958   9.080  1.00  0.00     0.034 C 
BRANCH  24  25
ATOM     25  CG  LEU     3       1.088   1.962   9.701  1.00  0.00     0.002 C 
ATOM     26  CD1 LEU     3       1.940   0.882   9.038  1.00  0.00     0.000 C 
ATOM     27  CD2 LEU     3       1.760   3.331   9.542  1.00  0.00     0.000 C 
ENDBRANCH  24  25
ENDBRANCH   9  24
ENDBRANCH   7   9
ENDBRANCH   5   6
BRANCH   5  28
ATOM     28  CB  ASN     4      -4.129   5.935   7.326  1.00  0.00     0.126 C 
BRANCH  28  29
ATOM     29  CG  ASN     4      -4.385   5.037   6.099  1.00  0.00     0.276 C 
ATOM     30  ND2 ASN     4      -4.637   3.779   6.344  1.00  0.00    -0.107 N 
ATOM     31  OD1 ASN     4      -4.426   5.447   4.955  1.00  0.00    -0.269 OA
ENDBRANCH  28  29
ENDBRANCH   5  28
ENDBRANCH   3   5
ENDBRANCH   1   2
BRANCH   1  32
ATOM     32  CB  ARG     5      -1.142  10.376   6.368  1.00  0.00     0.036 C 
BRANCH  32  33
ATOM     33  CG  ARG     5       0.077  11.012   7.038  1.00  0.00     0.029 C 
BRANCH  33  34
ATOM     34  CD  ARG     5       0.761   9.982   7.930  1.00  0.00     0.145 C 
BRANCH  34  35
ATOM     35  NE  ARG     5       0.962   8.689   7.231  1.00  0.00    -0.083 NA
ATOM     36  CZ  ARG     5       2.146   8.225   6.807  1.00  0.00     0.782 C 
ATOM     37  NH2 ARG     5       2.289   6.950   6.407  1.00  0.00     0.063 N 
ATOM     38  NH1 ARG     5       3.245   8.963   6.883  1.00  0.00     0.063 N 
ENDBRANCH  34  35
ENDBRANCH  33  34
ENDBRANCH  32  33
ENDBRANCH   1  32
BRANCH   1  39
ATOM     39  C   ARG     5      -3.527  10.638   7.109  1.00  0.00     0.256 C 
ATOM     40  O   ARG     5      -3.720  11.730   7.651  1.00  0.00    -0.270 OA
ATOM     41  N   PRO     6      -4.374  10.110   6.220  1.00  0.00    -0.312 N 
ATOM     42  CA  PRO     6      -5.697  10.685   5.890  1.00  0.00     0.165 C 
ATOM     43  CD  PRO     6      -4.074   8.978   5.317  1.00  0.00     0.105 C 
ATOM     44  CB  PRO     6      -6.326   9.687   4.916  1.00  0.00     0.034 C 
ATOM     45  CG  PRO     6      -5.117   9.097   4.205  1.00  0.00     0.027 C 
BRANCH  42  46
ATOM     46  C   PRO     6      -6.568  10.848   7.147  1.00  0.00     0.272 C 
ATOM     47  N   SER     7      -7.042  12.047   7.460  1.00  0.00    -0.226 NA
ATOM     48  O   PRO     6      -6.733   9.893   7.912  1.00  0.00    -0.269 OA
BRANCH  47  49
ATOM     49  CA  SER     7      -6.818  13.311   6.717  1.00  0.00     0.219 C 
BRANCH  49  50
ATOM     50  C   SER     7      -6.017  14.331   7.546  1.00  0.00     0.277 C 
ATOM     51  O   SER     7      -5.973  14.211   8.766  1.00  0.00    -0.268 OA
ATOM     52  N   GLY     8      -5.228  15.142   6.855  1.00  0.00    -0.226 NA
BRANCH  52  53
ATOM     53  CA  GLY     8      -4.557  16.311   7.484  1.00  0.00     0.218 C 
BRANCH  53  54
ATOM     54  C   GLY     8      -3.027  16.269   7.644  1.00  0.00     0.277 C 
ATOM     55  N   GLY     9      -2.539  15.583   8.688  1.00  0.00    -0.226 NA
ATOM     56  O   GLY     8      -2.309  16.810   6.819  1.00  0.00    -0.268 OA
BRANCH  55  57
ATOM     57  CA  GLY     9      -1.095  15.490   8.988  1.00  0.00     0.218 C 
BRANCH  57  58
ATOM     58  C   GLY     9      -0.649  14.021   9.173  1.00  0.00     0.277 C 
ATOM     59  O   GLY     9      -1.482  13.172   9.461  1.00  0.00    -0.268 OA
ATOM     60  N   CYS    10       0.631  13.676   9.193  1.00  0.00    -0.228 NA
BRANCH  60  61
ATOM     61  CA  CYS    10       1.816  14.564   9.091  1.00  0.00     0.198 C 
BRANCH  61  62
ATOM     62  CB  CYS    10       2.992  14.069   9.941  1.00  0.00     0.103 C 
ATOM     63  SG  CYS    10       3.741  12.461   9.511  1.00  0.00    -0.080 SA
ENDBRANCH  61  62
BRANCH  61  64
ATOM     64  C   CYS    10       2.390  14.680   7.677  1.00  0.00     0.275 C 
ATOM     65  O   CYS    10       2.057  13.859   6.824  1.00  0.00    -0.268 OA
ATOM     66  N   GLY    11       2.954  15.849   7.423  1.00  0.00    -0.225 NA
BRANCH  66  67
ATOM     67  CA  GLY    11       4.110  15.966   6.523  1.00  0.00     0.226 C 
BRANCH  67  68
ATOM     68  C   GLY    11       3.619  16.851   5.367  1.00  0.00     0.211 C 
ATOM     69  O2  GLY    11       4.153  17.979   5.288  1.00  0.00    -0.646 OA
ATOM     70  O1  GLY    11       3.043  16.261   4.425  1.00  0.00    -0.646 OA
ENDBRANCH  67  68
ENDBRANCH  66  67
ENDBRANCH  61  64
ENDBRANCH  60  61
ENDBRANCH  57  58
ENDBRANCH  55  57
ENDBRANCH  53  54
ENDBRANCH  52  53
ENDBRANCH  49  50
BRANCH  49  71
ATOM     71  CB  SER     7      -8.138  13.978   6.326  1.00  0.00     0.216 C 
ATOM     72  OG  SER     7      -8.883  13.115   5.465  1.00  0.00    -0.218 OA
ENDBRANCH  49  71
ENDBRANCH  47  49
ENDBRANCH  42  46
ENDBRANCH   1  39
TORSDOF 33
ENDMDL
MODEL 8
REMARK VINA RESULT:      -4.8     16.316     22.150
REMARK WARNING: 32 MAX_TORS EXCEEDED!!!
REMARK  33 active torsions:
REMARK  status: ('A' for Active; 'I' for Inactive)
REMARK    1  A    between atoms: CA_2  and  C_8 
REMARK    2  A    between atoms: CA_2  and  CB_3 
REMARK    3  A    between atoms: CB_3  and  CG_4 
REMARK    4  A    between atoms: CG_4  and  CD_5 
REMARK       I    between atoms: C_8  and  N_10 
REMARK    5  A    between atoms: N_10  and  CA_11 
REMARK    6  A    between atoms: CA_11  and  C_12 
REMARK       I    between atoms: C_12  and  N_14 
REMARK    7  A    between atoms: N_14  and  CA_15 
REMARK    8  A    between atoms: CA_15  and  C_20 
REMARK    9  A    between atoms: CA_15  and  CB_16 
REMARK   10  A    between atoms: CB_16  and  CG_17 
REMARK       I    between atoms: C_20  and  N_22 
REMARK   11  A    between atoms: N_22  and  CA_23 
REMARK   12  A    between atoms: CA_23  and  CB_24 
REMARK   13  A    between atoms: CA_23  and  C_28 
REMARK   14  A    between atoms: CB_24  and  CG_25 
REMARK       I    between atoms: C_28  and  N_30 
REMARK   15  A    between atoms: N_30  and  CA_31 
REMARK   16  A    between atoms: CA_31  and  CB_32 
REMARK   17  A    between atoms: CA_31  and  C_39 
REMARK   18  A    between atoms: CB_32  and  CG_33 
REMARK   19  A    between atoms: CG_33  and  CD_34 
REMARK   20  A    between atoms: CD_34  and  NE_35 
REMARK       I    between atoms: C_39  and  N_41 
REMARK   21  A    between atoms: CA_42  and  C_46 
REMARK       I    between atoms: C_46  and  N_48 
REMARK   22  A    between atoms: N_48  and  CA_49 
REMARK   23  A    between atoms: CA_49  and  C_52 
REMARK   24  A    between atoms: CA_49  and  CB_50 
REMARK       I    between atoms: C_52  and  N_54 
REMARK   25  A    between atoms: N_54  and  CA_55 
REMARK   26  A    between atoms: CA_55  and  C_56 
REMARK       I    between atoms: C_56  and  N_58 
REMARK   27  A    between atoms: N_58  and  CA_59 
REMARK   28  A    between atoms: CA_59  and  C_60 
REMARK       I    between atoms: C_60  and  N_62 
REMARK   29  A    between atoms: N_62  and  CA_63 
REMARK   30  A    between atoms: CA_63  and  CB_64 
REMARK   31  A    between atoms: CA_63  and  C_66 
REMARK       I    between atoms: C_66  and  N_68 
REMARK   32  A    between atoms: N_68  and  CA_69 
REMARK   33  A    between atoms: CA_69  and  C_70 
ROOT
ATOM      1  CA  ARG     5      -2.466   5.789   6.963  1.00  0.00     0.185 C 
ENDROOT
BRANCH   1   2
ATOM      2  N   ARG     5      -2.652   4.499   7.653  1.00  0.00    -0.229 NA
ATOM      3  C   ASN     4      -3.626   4.212   8.502  1.00  0.00     0.275 C 
ATOM      4  O   ASN     4      -4.357   5.049   9.023  1.00  0.00    -0.268 OA
BRANCH   3   5
ATOM      5  CA  ASN     4      -3.543   2.768   9.038  1.00  0.00     0.196 C 
BRANCH   5   6
ATOM      6  N   ASN     4      -4.851   2.090   8.919  1.00  0.00    -0.228 NA
ATOM      7  C   LEU     3      -5.512   1.978   7.769  1.00  0.00     0.274 C 
ATOM      8  O   LEU     3      -5.118   2.411   6.682  1.00  0.00    -0.268 OA
BRANCH   7   9
ATOM      9  CA  LEU     3      -6.821   1.194   7.852  1.00  0.00     0.186 C 
BRANCH   9  10
ATOM     10  N   LEU     3      -6.621  -0.164   7.299  1.00  0.00    -0.229 NA
ATOM     11  C   GLY     2      -7.103  -0.541   6.111  1.00  0.00     0.277 C 
ATOM     12  O   GLY     2      -7.610   0.237   5.316  1.00  0.00    -0.268 OA
BRANCH  11  13
ATOM     13  CA  GLY     2      -6.833  -2.005   5.705  1.00  0.00     0.218 C 
BRANCH  13  14
ATOM     14  N   GLY     2      -7.819  -3.036   6.113  1.00  0.00    -0.226 NA
ATOM     15  C   GLU     1      -9.033  -3.116   5.556  1.00  0.00     0.289 C 
ATOM     16  O   GLU     1      -9.322  -2.451   4.575  1.00  0.00    -0.268 OA
BRANCH  15  17
ATOM     17  CA  GLU     1     -10.050  -4.139   6.128  1.00  0.00     0.381 C 
ATOM     18  N   GLU     1     -11.267  -3.519   6.680  1.00  0.00     0.626 N 
BRANCH  17  19
ATOM     19  CB  GLU     1     -10.393  -5.160   5.024  1.00  0.00     0.060 C 
BRANCH  19  20
ATOM     20  CG  GLU     1      -9.343  -6.201   4.606  1.00  0.00     0.100 C 
BRANCH  20  21
ATOM     21  CD  GLU     1      -8.677  -6.889   5.807  1.00  0.00     0.185 C 
ATOM     22  OE1 GLU     1      -9.358  -7.673   6.491  1.00  0.00    -0.647 OA
ATOM     23  OE2 GLU     1      -7.493  -6.611   6.067  1.00  0.00    -0.647 OA
ENDBRANCH  20  21
ENDBRANCH  19  20
ENDBRANCH  17  19
ENDBRANCH  15  17
ENDBRANCH  13  14
ENDBRANCH  11  13
ENDBRANCH   9  10
BRANCH   9  24
ATOM     24  CB  LEU     3      -7.257   1.117   9.321  1.00  0.00     0.034 C 
BRANCH  24  25
ATOM     25  CG  LEU     3      -8.784   1.111   9.516  1.00  0.00     0.002 C 
ATOM     26  CD1 LEU     3      -9.452   1.802   8.329  1.00  0.00     0.000 C 
ATOM     27  CD2 LEU     3      -9.319  -0.318   9.661  1.00  0.00     0.000 C 
ENDBRANCH  24  25
ENDBRANCH   9  24
ENDBRANCH   7   9
ENDBRANCH   5   6
BRANCH   5  28
ATOM     28  CB  ASN     4      -2.457   1.958   8.309  1.00  0.00     0.126 C 
BRANCH  28  29
ATOM     29  CG  ASN     4      -1.379   1.381   9.248  1.00  0.00     0.276 C 
ATOM     30  ND2 ASN     4      -1.796   0.558  10.172  1.00  0.00    -0.107 N 
ATOM     31  OD1 ASN     4      -0.189   1.600   9.129  1.00  0.00    -0.269 OA
ENDBRANCH  28  29
ENDBRANCH   5  28
ENDBRANCH   3   5
ENDBRANCH   1   2
BRANCH   1  32
ATOM     32  CB  ARG     5      -3.804   6.313   6.432  1.00  0.00     0.036 C 
BRANCH  32  33
ATOM     33  CG  ARG     5      -4.080   5.941   4.974  1.00  0.00     0.029 C 
BRANCH  33  34
ATOM     34  CD  ARG     5      -4.167   7.210   4.134  1.00  0.00     0.145 C 
BRANCH  34  35
ATOM     35  NE  ARG     5      -4.106   8.434   4.970  1.00  0.00    -0.083 NA
ATOM     36  CZ  ARG     5      -5.123   9.289   5.149  1.00  0.00     0.782 C 
ATOM     37  NH2 ARG     5      -5.077  10.232   6.105  1.00  0.00     0.063 N 
ATOM     38  NH1 ARG     5      -6.260   9.159   4.481  1.00  0.00     0.063 N 
ENDBRANCH  34  35
ENDBRANCH  33  34
ENDBRANCH  32  33
ENDBRANCH   1  32
BRANCH   1  39
ATOM     39  C   ARG     5      -1.862   6.814   7.941  1.00  0.00     0.256 C 
ATOM     40  O   ARG     5      -2.498   7.833   8.231  1.00  0.00    -0.270 OA
ATOM     41  N   PRO     6      -0.700   6.496   8.520  1.00  0.00    -0.312 N 
ATOM     42  CA  PRO     6       0.032   7.379   9.456  1.00  0.00     0.165 C 
ATOM     43  CD  PRO     6      -0.043   5.173   8.454  1.00  0.00     0.105 C 
ATOM     44  CB  PRO     6       1.331   6.634   9.762  1.00  0.00     0.034 C 
ATOM     45  CG  PRO     6       0.923   5.172   9.639  1.00  0.00     0.027 C 
BRANCH  42  46
ATOM     46  C   PRO     6       0.322   8.750   8.822  1.00  0.00     0.272 C 
ATOM     47  N   SER     7       1.358   8.884   8.006  1.00  0.00    -0.226 NA
ATOM     48  O   PRO     6      -0.339   9.738   9.157  1.00  0.00    -0.269 OA
BRANCH  47  49
ATOM     49  CA  SER     7       2.322   7.827   7.616  1.00  0.00     0.219 C 
BRANCH  49  50
ATOM     50  C   SER     7       3.775   8.231   7.923  1.00  0.00     0.277 C 
ATOM     51  O   SER     7       4.057   9.420   8.032  1.00  0.00    -0.268 OA
ATOM     52  N   GLY     8       4.584   7.245   8.285  1.00  0.00    -0.226 NA
BRANCH  52  53
ATOM     53  CA  GLY     8       6.053   7.437   8.409  1.00  0.00     0.218 C 
BRANCH  53  54
ATOM     54  C   GLY     8       6.975   6.269   8.016  1.00  0.00     0.277 C 
ATOM     55  N   GLY     9       7.370   5.444   8.996  1.00  0.00    -0.226 NA
ATOM     56  O   GLY     8       7.282   6.098   6.848  1.00  0.00    -0.268 OA
BRANCH  55  57
ATOM     57  CA  GLY     9       8.284   4.306   8.772  1.00  0.00     0.218 C 
BRANCH  57  58
ATOM     58  C   GLY     9       7.512   2.968   8.684  1.00  0.00     0.277 C 
ATOM     59  O   GLY     9       6.301   2.962   8.862  1.00  0.00    -0.268 OA
ATOM     60  N   CYS    10       8.139   1.804   8.589  1.00  0.00    -0.228 NA
BRANCH  60  61
ATOM     61  CA  CYS    10       9.601   1.553   8.586  1.00  0.00     0.198 C 
BRANCH  61  62
ATOM     62  CB  CYS    10      10.085   0.903   9.887  1.00  0.00     0.103 C 
ATOM     63  SG  CYS    10      11.849   1.077  10.326  1.00  0.00    -0.080 SA
ENDBRANCH  61  62
BRANCH  61  64
ATOM     64  C   CYS    10      10.069   0.598   7.486  1.00  0.00     0.275 C 
ATOM     65  O   CYS    10      10.965   0.954   6.722  1.00  0.00    -0.268 OA
ATOM     66  N   GLY    11       9.675  -0.653   7.660  1.00  0.00    -0.225 NA
BRANCH  66  67
ATOM     67  CA  GLY    11       9.372  -1.529   6.520  1.00  0.00     0.226 C 
BRANCH  67  68
ATOM     68  C   GLY    11       7.955  -1.127   6.081  1.00  0.00     0.211 C 
ATOM     69  O2  GLY    11       7.043  -1.392   6.894  1.00  0.00    -0.646 OA
ATOM     70  O1  GLY    11       7.881  -0.269   5.172  1.00  0.00    -0.646 OA
ENDBRANCH  67  68
ENDBRANCH  66  67
ENDBRANCH  61  64
ENDBRANCH  60  61
ENDBRANCH  57  58
ENDBRANCH  55  57
ENDBRANCH  53  54
ENDBRANCH  52  53
ENDBRANCH  49  50
BRANCH  49  71
ATOM     71  CB  SER     7       2.244   7.514   6.120  1.00  0.00     0.216 C 
ATOM     72  OG  SER     7       2.298   8.725   5.365  1.00  0.00    -0.218 OA
ENDBRANCH  49  71
ENDBRANCH  47  49
ENDBRANCH  42  46
ENDBRANCH   1  39
TORSDOF 33
ENDMDL
MODEL 9
REMARK VINA RESULT:      -4.7     23.081     28.489
REMARK WARNING: 32 MAX_TORS EXCEEDED!!!
REMARK  33 active torsions:
REMARK  status: ('A' for Active; 'I' for Inactive)
REMARK    1  A    between atoms: CA_2  and  C_8 
REMARK    2  A    between atoms: CA_2  and  CB_3 
REMARK    3  A    between atoms: CB_3  and  CG_4 
REMARK    4  A    between atoms: CG_4  and  CD_5 
REMARK       I    between atoms: C_8  and  N_10 
REMARK    5  A    between atoms: N_10  and  CA_11 
REMARK    6  A    between atoms: CA_11  and  C_12 
REMARK       I    between atoms: C_12  and  N_14 
REMARK    7  A    between atoms: N_14  and  CA_15 
REMARK    8  A    between atoms: CA_15  and  C_20 
REMARK    9  A    between atoms: CA_15  and  CB_16 
REMARK   10  A    between atoms: CB_16  and  CG_17 
REMARK       I    between atoms: C_20  and  N_22 
REMARK   11  A    between atoms: N_22  and  CA_23 
REMARK   12  A    between atoms: CA_23  and  CB_24 
REMARK   13  A    between atoms: CA_23  and  C_28 
REMARK   14  A    between atoms: CB_24  and  CG_25 
REMARK       I    between atoms: C_28  and  N_30 
REMARK   15  A    between atoms: N_30  and  CA_31 
REMARK   16  A    between atoms: CA_31  and  CB_32 
REMARK   17  A    between atoms: CA_31  and  C_39 
REMARK   18  A    between atoms: CB_32  and  CG_33 
REMARK   19  A    between atoms: CG_33  and  CD_34 
REMARK   20  A    between atoms: CD_34  and  NE_35 
REMARK       I    between atoms: C_39  and  N_41 
REMARK   21  A    between atoms: CA_42  and  C_46 
REMARK       I    between atoms: C_46  and  N_48 
REMARK   22  A    between atoms: N_48  and  CA_49 
REMARK   23  A    between atoms: CA_49  and  C_52 
REMARK   24  A    between atoms: CA_49  and  CB_50 
REMARK       I    between atoms: C_52  and  N_54 
REMARK   25  A    between atoms: N_54  and  CA_55 
REMARK   26  A    between atoms: CA_55  and  C_56 
REMARK       I    between atoms: C_56  and  N_58 
REMARK   27  A    between atoms: N_58  and  CA_59 
REMARK   28  A    between atoms: CA_59  and  C_60 
REMARK       I    between atoms: C_60  and  N_62 
REMARK   29  A    between atoms: N_62  and  CA_63 
REMARK   30  A    between atoms: CA_63  and  CB_64 
REMARK   31  A    between atoms: CA_63  and  C_66 
REMARK       I    between atoms: C_66  and  N_68 
REMARK   32  A    between atoms: N_68  and  CA_69 
REMARK   33  A    between atoms: CA_69  and  C_70 
ROOT
ATOM      1  CA  ARG     5      -1.982   9.933   7.661  1.00  0.00     0.185 C 
ENDROOT
BRANCH   1   2
ATOM      2  N   ARG     5      -2.213   8.493   7.439  1.00  0.00    -0.229 NA
ATOM      3  C   ASN     4      -2.168   7.552   8.369  1.00  0.00     0.275 C 
ATOM      4  O   ASN     4      -1.683   7.709   9.485  1.00  0.00    -0.268 OA
BRANCH   3   5
ATOM      5  CA  ASN     4      -2.471   6.147   7.809  1.00  0.00     0.196 C 
BRANCH   5   6
ATOM      6  N   ASN     4      -2.069   5.102   8.775  1.00  0.00    -0.228 NA
ATOM      7  C   LEU     3      -1.542   3.936   8.410  1.00  0.00     0.274 C 
ATOM      8  O   LEU     3      -1.321   3.594   7.244  1.00  0.00    -0.268 OA
BRANCH   7   9
ATOM      9  CA  LEU     3      -1.146   3.018   9.566  1.00  0.00     0.186 C 
BRANCH   9  10
ATOM     10  N   LEU     3      -2.359   2.399  10.145  1.00  0.00    -0.229 NA
ATOM     11  C   GLY     2      -3.056   1.447   9.518  1.00  0.00     0.277 C 
ATOM     12  O   GLY     2      -2.673   0.898   8.496  1.00  0.00    -0.268 OA
BRANCH  11  13
ATOM     13  CA  GLY     2      -4.316   0.938  10.250  1.00  0.00     0.218 C 
BRANCH  13  14
ATOM     14  N   GLY     2      -5.549   0.725   9.454  1.00  0.00    -0.226 NA
ATOM     15  C   GLU     1      -6.370   1.731   9.135  1.00  0.00     0.289 C 
ATOM     16  O   GLU     1      -6.056   2.892   9.342  1.00  0.00    -0.268 OA
BRANCH  15  17
ATOM     17  CA  GLU     1      -7.703   1.405   8.410  1.00  0.00     0.381 C 
ATOM     18  N   GLU     1      -8.887   2.008   9.048  1.00  0.00     0.626 N 
BRANCH  17  19
ATOM     19  CB  GLU     1      -7.580   1.839   6.935  1.00  0.00     0.060 C 
BRANCH  19  20
ATOM     20  CG  GLU     1      -6.559   1.138   6.026  1.00  0.00     0.100 C 
BRANCH  20  21
ATOM     21  CD  GLU     1      -6.765  -0.383   5.962  1.00  0.00     0.185 C 
ATOM     22  OE1 GLU     1      -5.760  -1.116   5.957  1.00  0.00    -0.647 OA
ATOM     23  OE2 GLU     1      -7.927  -0.821   5.887  1.00  0.00    -0.647 OA
ENDBRANCH  20  21
ENDBRANCH  19  20
ENDBRANCH  17  19
ENDBRANCH  15  17
ENDBRANCH  13  14
ENDBRANCH  11  13
ENDBRANCH   9  10
BRANCH   9  24
ATOM     24  CB  LEU     3      -0.193   1.940   9.034  1.00  0.00     0.034 C 
BRANCH  24  25
ATOM     25  CG  LEU     3       1.204   1.972   9.681  1.00  0.00     0.002 C 
ATOM     26  CD1 LEU     3       2.063   0.855   9.090  1.00  0.00     0.000 C 
ATOM     27  CD2 LEU     3       1.884   3.328   9.465  1.00  0.00     0.000 C 
ENDBRANCH  24  25
ENDBRANCH   9  24
ENDBRANCH   7   9
ENDBRANCH   5   6
BRANCH   5  28
ATOM     28  CB  ASN     4      -3.958   5.993   7.448  1.00  0.00     0.126 C 
BRANCH  28  29
ATOM     29  CG  ASN     4      -4.198   5.329   6.078  1.00  0.00     0.276 C 
ATOM     30  ND2 ASN     4      -4.461   4.050   6.092  1.00  0.00    -0.107 N 
ATOM     31  OD1 ASN     4      -4.216   5.936   5.024  1.00  0.00    -0.269 OA
ENDBRANCH  28  29
ENDBRANCH   5  28
ENDBRANCH   3   5
ENDBRANCH   1   2
BRANCH   1  32
ATOM     32  CB  ARG     5      -1.065  10.504   6.573  1.00  0.00     0.036 C 
BRANCH  32  33
ATOM     33  CG  ARG     5       0.424  10.279   6.838  1.00  0.00     0.029 C 
BRANCH  33  34
ATOM     34  CD  ARG     5       0.816  10.963   8.144  1.00  0.00     0.145 C 
BRANCH  34  35
ATOM     35  NE  ARG     5       0.730  12.440   8.044  1.00  0.00    -0.083 NA
ATOM     36  CZ  ARG     5       0.060  13.227   8.900  1.00  0.00     0.782 C 
ATOM     37  NH2 ARG     5       0.227  14.560   8.892  1.00  0.00     0.063 N 
ATOM     38  NH1 ARG     5      -0.691  12.716   9.864  1.00  0.00     0.063 N 
ENDBRANCH  34  35
ENDBRANCH  33  34
ENDBRANCH  32  33
ENDBRANCH   1  32
BRANCH   1  39
ATOM     39  C   ARG     5      -3.329  10.680   7.644  1.00  0.00     0.256 C 
ATOM     40  O   ARG     5      -3.502  11.647   8.392  1.00  0.00    -0.270 OA
ATOM     41  N   PRO     6      -4.227  10.300   6.731  1.00  0.00    -0.312 N 
ATOM     42  CA  PRO     6      -5.579  10.887   6.600  1.00  0.00     0.165 C 
ATOM     43  CD  PRO     6      -3.971   9.363   5.615  1.00  0.00     0.105 C 
ATOM     44  CB  PRO     6      -6.257  10.067   5.501  1.00  0.00     0.034 C 
ATOM     45  CG  PRO     6      -5.091   9.654   4.615  1.00  0.00     0.027 C 
BRANCH  42  46
ATOM     46  C   PRO     6      -6.363  10.789   7.920  1.00  0.00     0.272 C 
ATOM     47  N   SER     7      -6.990  11.861   8.384  1.00  0.00    -0.226 NA
ATOM     48  O   PRO     6      -6.317   9.754   8.591  1.00  0.00    -0.269 OA
BRANCH  47  49
ATOM     49  CA  SER     7      -7.025  13.208   7.765  1.00  0.00     0.219 C 
BRANCH  49  50
ATOM     50  C   SER     7      -5.984  14.155   8.388  1.00  0.00     0.277 C 
ATOM     51  O   SER     7      -5.917  14.254   9.608  1.00  0.00    -0.268 OA
ATOM     52  N   GLY     8      -5.064  14.627   7.558  1.00  0.00    -0.226 NA
BRANCH  52  53
ATOM     53  CA  GLY     8      -4.126  15.709   7.956  1.00  0.00     0.218 C 
BRANCH  53  54
ATOM     54  C   GLY     8      -3.265  16.364   6.861  1.00  0.00     0.277 C 
ATOM     55  N   GLY     9      -1.990  16.644   7.170  1.00  0.00    -0.226 NA
ATOM     56  O   GLY     8      -3.734  16.569   5.754  1.00  0.00    -0.268 OA
BRANCH  55  57
ATOM     57  CA  GLY     9      -1.061  17.306   6.232  1.00  0.00     0.218 C 
BRANCH  57  58
ATOM     58  C   GLY     9       0.117  17.975   6.981  1.00  0.00     0.277 C 
ATOM     59  O   GLY     9      -0.110  18.898   7.753  1.00  0.00    -0.268 OA
ATOM     60  N   CYS    10       1.379  17.694   6.691  1.00  0.00    -0.228 NA
BRANCH  60  61
ATOM     61  CA  CYS    10       1.892  16.781   5.641  1.00  0.00     0.198 C 
BRANCH  61  62
ATOM     62  CB  CYS    10       2.543  17.536   4.476  1.00  0.00     0.103 C 
ATOM     63  SG  CYS    10       2.046  19.270   4.196  1.00  0.00    -0.080 SA
ENDBRANCH  61  62
BRANCH  61  64
ATOM     64  C   CYS    10       2.978  15.819   6.126  1.00  0.00     0.275 C 
ATOM     65  O   CYS    10       2.671  14.665   6.423  1.00  0.00    -0.268 OA
ATOM     66  N   GLY    11       4.210  16.234   5.880  1.00  0.00    -0.225 NA
BRANCH  66  67
ATOM     67  CA  GLY    11       5.323  15.922   6.788  1.00  0.00     0.226 C 
BRANCH  67  68
ATOM     68  C   GLY    11       6.542  15.744   5.869  1.00  0.00     0.211 C 
ATOM     69  O2  GLY    11       6.481  14.783   5.073  1.00  0.00    -0.646 OA
ATOM     70  O1  GLY    11       7.280  16.746   5.732  1.00  0.00    -0.646 OA
ENDBRANCH  67  68
ENDBRANCH  66  67
ENDBRANCH  61  64
ENDBRANCH  60  61
ENDBRANCH  57  58
ENDBRANCH  55  57
ENDBRANCH  53  54
ENDBRANCH  52  53
ENDBRANCH  49  50
BRANCH  49  71
ATOM     71  CB  SER     7      -8.396  13.869   7.924  1.00  0.00     0.216 C 
ATOM     72  OG  SER     7      -9.115  13.800   6.693  1.00  0.00    -0.218 OA
ENDBRANCH  49  71
ENDBRANCH  47  49
ENDBRANCH  42  46
ENDBRANCH   1  39
TORSDOF 33
ENDMDL
