MODEL 1
REMARK VINA RESULT:      -4.7      0.000      0.000
REMARK WARNING: 32 MAX_TORS EXCEEDED!!!
REMARK  33 active torsions:
REMARK  status: ('A' for Active; 'I' for Inactive)
REMARK    1  A    between atoms: CA_2  and  C_8 
REMARK    2  A    between atoms: CA_2  and  CB_3 
REMARK    3  A    between atoms: CB_3  and  CG_4 
REMARK    4  A    between atoms: CG_4  and  CD_5 
REMARK       I    between atoms: C_8  and  N_10 
REMARK    5  A    between atoms: N_10  and  CA_11 
REMARK    6  A    between atoms: CA_11  and  C_12 
REMARK       I    between atoms: C_12  and  N_14 
REMARK    7  A    between atoms: N_14  and  CA_15 
REMARK    8  A    between atoms: CA_15  and  C_20 
REMARK    9  A    between atoms: CA_15  and  CB_16 
REMARK   10  A    between atoms: CB_16  and  CG_17 
REMARK       I    between atoms: C_20  and  N_22 
REMARK   11  A    between atoms: N_22  and  CA_23 
REMARK   12  A    between atoms: CA_23  and  CB_24 
REMARK   13  A    between atoms: CA_23  and  C_28 
REMARK   14  A    between atoms: CB_24  and  CG_25 
REMARK       I    between atoms: C_28  and  N_30 
REMARK   15  A    between atoms: N_30  and  CA_31 
REMARK   16  A    between atoms: CA_31  and  CB_32 
REMARK   17  A    between atoms: CA_31  and  C_39 
REMARK   18  A    between atoms: CB_32  and  CG_33 
REMARK   19  A    between atoms: CG_33  and  CD_34 
REMARK   20  A    between atoms: CD_34  and  NE_35 
REMARK       I    between atoms: C_39  and  N_41 
REMARK   21  A    between atoms: CA_42  and  C_46 
REMARK       I    between atoms: C_46  and  N_48 
REMARK   22  A    between atoms: N_48  and  CA_49 
REMARK   23  A    between atoms: CA_49  and  C_52 
REMARK   24  A    between atoms: CA_49  and  CB_50 
REMARK       I    between atoms: C_52  and  N_54 
REMARK   25  A    between atoms: N_54  and  CA_55 
REMARK   26  A    between atoms: CA_55  and  C_56 
REMARK       I    between atoms: C_56  and  N_58 
REMARK   27  A    between atoms: N_58  and  CA_59 
REMARK   28  A    between atoms: CA_59  and  C_60 
REMARK       I    between atoms: C_60  and  N_62 
REMARK   29  A    between atoms: N_62  and  CA_63 
REMARK   30  A    between atoms: CA_63  and  CB_64 
REMARK   31  A    between atoms: CA_63  and  C_66 
REMARK       I    between atoms: C_66  and  N_68 
REMARK   32  A    between atoms: N_68  and  CA_69 
REMARK   33  A    between atoms: CA_69  and  C_70 
ROOT
ATOM      1  CA  ARG     5       1.643 -20.250   8.947  1.00  0.00     0.185 C 
ENDROOT
BRANCH   1   2
ATOM      2  N   ARG     5       3.046 -20.281   8.493  1.00  0.00    -0.229 NA
ATOM      3  C   ASN     4       4.107 -20.044   9.248  1.00  0.00     0.275 C 
ATOM      4  O   ASN     4       4.061 -19.523  10.358  1.00  0.00    -0.268 OA
BRANCH   3   5
ATOM      5  CA  ASN     4       5.433 -20.172   8.469  1.00  0.00     0.196 C 
BRANCH   5   6
ATOM      6  N   ASN     4       5.734 -18.919   7.744  1.00  0.00    -0.228 NA
ATOM      7  C   LEU     3       6.147 -18.891   6.479  1.00  0.00     0.274 C 
ATOM      8  O   LEU     3       6.317 -19.886   5.768  1.00  0.00    -0.268 OA
BRANCH   7   9
ATOM      9  CA  LEU     3       6.351 -17.492   5.899  1.00  0.00     0.186 C 
BRANCH   9  10
ATOM     10  N   LEU     3       7.471 -17.515   4.933  1.00  0.00    -0.229 NA
ATOM     11  C   GLY     2       8.750 -17.392   5.301  1.00  0.00     0.277 C 
ATOM     12  O   GLY     2       9.115 -17.408   6.467  1.00  0.00    -0.268 OA
BRANCH  11  13
ATOM     13  CA  GLY     2       9.787 -17.400   4.158  1.00  0.00     0.218 C 
BRANCH  13  14
ATOM     14  N   GLY     2      10.965 -16.508   4.278  1.00  0.00    -0.226 NA
ATOM     15  C   GLU     1      11.576 -15.990   3.206  1.00  0.00     0.289 C 
ATOM     16  O   GLU     1      11.089 -16.095   2.092  1.00  0.00    -0.268 OA
BRANCH  15  17
ATOM     17  CA  GLU     1      12.878 -15.172   3.412  1.00  0.00     0.381 C 
ATOM     18  N   GLU     1      12.978 -13.989   2.539  1.00  0.00     0.626 N 
BRANCH  17  19
ATOM     19  CB  GLU     1      12.982 -14.780   4.900  1.00  0.00     0.060 C 
BRANCH  19  20
ATOM     20  CG  GLU     1      13.661 -13.457   5.285  1.00  0.00     0.100 C 
BRANCH  20  21
ATOM     21  CD  GLU     1      13.465 -13.096   6.765  1.00  0.00     0.185 C 
ATOM     22  OE1 GLU     1      12.686 -13.790   7.445  1.00  0.00    -0.647 OA
ATOM     23  OE2 GLU     1      14.068 -12.108   7.219  1.00  0.00    -0.647 OA
ENDBRANCH  20  21
ENDBRANCH  19  20
ENDBRANCH  17  19
ENDBRANCH  15  17
ENDBRANCH  13  14
ENDBRANCH  11  13
ENDBRANCH   9  10
BRANCH   9  24
ATOM     24  CB  LEU     3       5.055 -17.050   5.209  1.00  0.00     0.034 C 
BRANCH  24  25
ATOM     25  CG  LEU     3       4.207 -16.074   6.044  1.00  0.00     0.002 C 
ATOM     26  CD1 LEU     3       5.043 -15.540   7.206  1.00  0.00     0.000 C 
ATOM     27  CD2 LEU     3       3.696 -14.910   5.187  1.00  0.00     0.000 C 
ENDBRANCH  24  25
ENDBRANCH   9  24
ENDBRANCH   7   9
ENDBRANCH   5   6
BRANCH   5  28
ATOM     28  CB  ASN     4       6.600 -20.541   9.400  1.00  0.00     0.126 C 
BRANCH  28  29
ATOM     29  CG  ASN     4       7.770 -19.538   9.354  1.00  0.00     0.276 C 
ATOM     30  ND2 ASN     4       7.703 -18.530  10.182  1.00  0.00    -0.107 N 
ATOM     31  OD1 ASN     4       8.752 -19.674   8.650  1.00  0.00    -0.269 OA
ENDBRANCH  28  29
ENDBRANCH   5  28
ENDBRANCH   3   5
ENDBRANCH   1   2
BRANCH   1  32
ATOM     32  CB  ARG     5       0.980 -18.926   8.552  1.00  0.00     0.036 C 
BRANCH  32  33
ATOM     33  CG  ARG     5      -0.174 -18.514   9.467  1.00  0.00     0.029 C 
BRANCH  33  34
ATOM     34  CD  ARG     5      -0.508 -17.044   9.233  1.00  0.00     0.145 C 
BRANCH  34  35
ATOM     35  NE  ARG     5      -1.890 -16.715   9.658  1.00  0.00    -0.083 NA
ATOM     36  CZ  ARG     5      -2.354 -15.472   9.856  1.00  0.00     0.782 C 
ATOM     37  NH2 ARG     5      -3.669 -15.237   9.998  1.00  0.00     0.063 N 
ATOM     38  NH1 ARG     5      -1.553 -14.418   9.792  1.00  0.00     0.063 N 
ENDBRANCH  34  35
ENDBRANCH  33  34
ENDBRANCH  32  33
ENDBRANCH   1  32
BRANCH   1  39
ATOM     39  C   ARG     5       0.871 -21.423   8.315  1.00  0.00     0.256 C 
ATOM     40  O   ARG     5       0.378 -21.296   7.190  1.00  0.00    -0.270 OA
ATOM     41  N   PRO     6       0.857 -22.578   8.986  1.00  0.00    -0.312 N 
ATOM     42  CA  PRO     6       0.136 -23.791   8.539  1.00  0.00     0.165 C 
ATOM     43  CD  PRO     6       1.675 -22.886  10.180  1.00  0.00     0.105 C 
ATOM     44  CB  PRO     6       0.332 -24.802   9.671  1.00  0.00     0.034 C 
ATOM     45  CG  PRO     6       1.687 -24.414  10.244  1.00  0.00     0.027 C 
BRANCH  42  46
ATOM     46  C   PRO     6      -1.357 -23.504   8.312  1.00  0.00     0.272 C 
ATOM     47  N   SER     7      -1.926 -23.880   7.175  1.00  0.00    -0.226 NA
ATOM     48  O   PRO     6      -1.990 -22.836   9.134  1.00  0.00    -0.269 OA
BRANCH  47  49
ATOM     49  CA  SER     7      -1.269 -24.569   6.038  1.00  0.00     0.219 C 
BRANCH  49  50
ATOM     50  C   SER     7      -1.925 -24.214   4.692  1.00  0.00     0.277 C 
ATOM     51  O   SER     7      -2.374 -23.085   4.522  1.00  0.00    -0.268 OA
ATOM     52  N   GLY     8      -1.749 -25.092   3.715  1.00  0.00    -0.226 NA
BRANCH  52  53
ATOM     53  CA  GLY     8      -2.489 -24.998   2.429  1.00  0.00     0.218 C 
BRANCH  53  54
ATOM     54  C   GLY     8      -4.004 -25.270   2.441  1.00  0.00     0.277 C 
ATOM     55  N   GLY     9      -4.818 -24.207   2.368  1.00  0.00    -0.226 NA
ATOM     56  O   GLY     8      -4.420 -26.417   2.472  1.00  0.00    -0.268 OA
BRANCH  55  57
ATOM     57  CA  GLY     9      -6.290 -24.315   2.409  1.00  0.00     0.218 C 
BRANCH  57  58
ATOM     58  C   GLY     9      -6.811 -24.406   3.864  1.00  0.00     0.277 C 
ATOM     59  O   GLY     9      -7.511 -25.355   4.192  1.00  0.00    -0.268 OA
ATOM     60  N   CYS    10      -6.663 -23.407   4.723  1.00  0.00    -0.228 NA
BRANCH  60  61
ATOM     61  CA  CYS    10      -6.051 -22.078   4.479  1.00  0.00     0.198 C 
BRANCH  61  62
ATOM     62  CB  CYS    10      -7.095 -21.007   4.142  1.00  0.00     0.103 C 
ATOM     63  SG  CYS    10      -8.672 -21.031   5.061  1.00  0.00    -0.080 SA
ENDBRANCH  61  62
BRANCH  61  64
ATOM     64  C   CYS    10      -5.295 -21.509   5.681  1.00  0.00     0.275 C 
ATOM     65  O   CYS    10      -5.049 -22.241   6.638  1.00  0.00    -0.268 OA
ATOM     66  N   GLY    11      -4.699 -20.353   5.439  1.00  0.00    -0.225 NA
BRANCH  66  67
ATOM     67  CA  GLY    11      -4.552 -19.330   6.485  1.00  0.00     0.226 C 
BRANCH  67  68
ATOM     68  C   GLY    11      -3.119 -19.507   7.009  1.00  0.00     0.211 C 
ATOM     69  O2  GLY    11      -2.231 -18.911   6.362  1.00  0.00    -0.646 OA
ATOM     70  O1  GLY    11      -3.008 -19.891   8.196  1.00  0.00    -0.646 OA
ENDBRANCH  67  68
ENDBRANCH  66  67
ENDBRANCH  61  64
ENDBRANCH  60  61
ENDBRANCH  57  58
ENDBRANCH  55  57
ENDBRANCH  53  54
ENDBRANCH  52  53
ENDBRANCH  49  50
BRANCH  49  71
ATOM     71  CB  SER     7      -1.328 -26.090   6.187  1.00  0.00     0.216 C 
ATOM     72  OG  SER     7      -2.576 -26.474   6.766  1.00  0.00    -0.218 OA
ENDBRANCH  49  71
ENDBRANCH  47  49
ENDBRANCH  42  46
ENDBRANCH   1  39
TORSDOF 33
ENDMDL
MODEL 2
REMARK VINA RESULT:      -4.6      2.796      4.234
REMARK WARNING: 32 MAX_TORS EXCEEDED!!!
REMARK  33 active torsions:
REMARK  status: ('A' for Active; 'I' for Inactive)
REMARK    1  A    between atoms: CA_2  and  C_8 
REMARK    2  A    between atoms: CA_2  and  CB_3 
REMARK    3  A    between atoms: CB_3  and  CG_4 
REMARK    4  A    between atoms: CG_4  and  CD_5 
REMARK       I    between atoms: C_8  and  N_10 
REMARK    5  A    between atoms: N_10  and  CA_11 
REMARK    6  A    between atoms: CA_11  and  C_12 
REMARK       I    between atoms: C_12  and  N_14 
REMARK    7  A    between atoms: N_14  and  CA_15 
REMARK    8  A    between atoms: CA_15  and  C_20 
REMARK    9  A    between atoms: CA_15  and  CB_16 
REMARK   10  A    between atoms: CB_16  and  CG_17 
REMARK       I    between atoms: C_20  and  N_22 
REMARK   11  A    between atoms: N_22  and  CA_23 
REMARK   12  A    between atoms: CA_23  and  CB_24 
REMARK   13  A    between atoms: CA_23  and  C_28 
REMARK   14  A    between atoms: CB_24  and  CG_25 
REMARK       I    between atoms: C_28  and  N_30 
REMARK   15  A    between atoms: N_30  and  CA_31 
REMARK   16  A    between atoms: CA_31  and  CB_32 
REMARK   17  A    between atoms: CA_31  and  C_39 
REMARK   18  A    between atoms: CB_32  and  CG_33 
REMARK   19  A    between atoms: CG_33  and  CD_34 
REMARK   20  A    between atoms: CD_34  and  NE_35 
REMARK       I    between atoms: C_39  and  N_41 
REMARK   21  A    between atoms: CA_42  and  C_46 
REMARK       I    between atoms: C_46  and  N_48 
REMARK   22  A    between atoms: N_48  and  CA_49 
REMARK   23  A    between atoms: CA_49  and  C_52 
REMARK   24  A    between atoms: CA_49  and  CB_50 
REMARK       I    between atoms: C_52  and  N_54 
REMARK   25  A    between atoms: N_54  and  CA_55 
REMARK   26  A    between atoms: CA_55  and  C_56 
REMARK       I    between atoms: C_56  and  N_58 
REMARK   27  A    between atoms: N_58  and  CA_59 
REMARK   28  A    between atoms: CA_59  and  C_60 
REMARK       I    between atoms: C_60  and  N_62 
REMARK   29  A    between atoms: N_62  and  CA_63 
REMARK   30  A    between atoms: CA_63  and  CB_64 
REMARK   31  A    between atoms: CA_63  and  C_66 
REMARK       I    between atoms: C_66  and  N_68 
REMARK   32  A    between atoms: N_68  and  CA_69 
REMARK   33  A    between atoms: CA_69  and  C_70 
ROOT
ATOM      1  CA  ARG     5       2.322 -18.745   9.486  1.00  0.00     0.185 C 
ENDROOT
BRANCH   1   2
ATOM      2  N   ARG     5       3.228 -18.005   8.587  1.00  0.00    -0.229 NA
ATOM      3  C   ASN     4       4.482 -17.678   8.854  1.00  0.00     0.275 C 
ATOM      4  O   ASN     4       4.983 -17.721   9.974  1.00  0.00    -0.268 OA
BRANCH   3   5
ATOM      5  CA  ASN     4       5.159 -16.917   7.695  1.00  0.00     0.196 C 
BRANCH   5   6
ATOM      6  N   ASN     4       6.543 -17.397   7.493  1.00  0.00    -0.228 NA
ATOM      7  C   LEU     3       6.839 -18.504   6.817  1.00  0.00     0.274 C 
ATOM      8  O   LEU     3       6.012 -19.247   6.279  1.00  0.00    -0.268 OA
BRANCH   7   9
ATOM      9  CA  LEU     3       8.333 -18.793   6.677  1.00  0.00     0.186 C 
BRANCH   9  10
ATOM     10  N   LEU     3       9.096 -17.911   7.588  1.00  0.00    -0.229 NA
ATOM     11  C   GLY     2      10.016 -17.044   7.155  1.00  0.00     0.277 C 
ATOM     12  O   GLY     2      10.197 -16.794   5.973  1.00  0.00    -0.268 OA
BRANCH  11  13
ATOM     13  CA  GLY     2      10.743 -16.229   8.246  1.00  0.00     0.218 C 
BRANCH  13  14
ATOM     14  N   GLY     2      11.811 -15.292   7.822  1.00  0.00    -0.226 NA
ATOM     15  C   GLU     1      12.723 -14.820   8.680  1.00  0.00     0.289 C 
ATOM     16  O   GLU     1      12.817 -15.269   9.810  1.00  0.00    -0.268 OA
BRANCH  15  17
ATOM     17  CA  GLU     1      13.727 -13.745   8.185  1.00  0.00     0.381 C 
ATOM     18  N   GLU     1      14.576 -13.192   9.255  1.00  0.00     0.626 N 
BRANCH  17  19
ATOM     19  CB  GLU     1      14.579 -14.354   7.052  1.00  0.00     0.060 C 
BRANCH  19  20
ATOM     20  CG  GLU     1      14.918 -13.498   5.822  1.00  0.00     0.100 C 
BRANCH  20  21
ATOM     21  CD  GLU     1      13.710 -13.274   4.901  1.00  0.00     0.185 C 
ATOM     22  OE1 GLU     1      12.869 -14.186   4.797  1.00  0.00    -0.647 OA
ATOM     23  OE2 GLU     1      13.635 -12.204   4.272  1.00  0.00    -0.647 OA
ENDBRANCH  20  21
ENDBRANCH  19  20
ENDBRANCH  17  19
ENDBRANCH  15  17
ENDBRANCH  13  14
ENDBRANCH  11  13
ENDBRANCH   9  10
BRANCH   9  24
ATOM     24  CB  LEU     3       8.584 -20.267   7.022  1.00  0.00     0.034 C 
BRANCH  24  25
ATOM     25  CG  LEU     3      10.045 -20.711   6.826  1.00  0.00     0.002 C 
ATOM     26  CD1 LEU     3      10.273 -22.039   7.544  1.00  0.00     0.000 C 
ATOM     27  CD2 LEU     3      10.387 -20.853   5.339  1.00  0.00     0.000 C 
ENDBRANCH  24  25
ENDBRANCH   9  24
ENDBRANCH   7   9
ENDBRANCH   5   6
BRANCH   5  28
ATOM     28  CB  ASN     4       4.355 -17.048   6.390  1.00  0.00     0.126 C 
BRANCH  28  29
ATOM     29  CG  ASN     4       3.915 -15.695   5.796  1.00  0.00     0.276 C 
ATOM     30  ND2 ASN     4       3.652 -14.744   6.652  1.00  0.00    -0.107 N 
ATOM     31  OD1 ASN     4       3.867 -15.462   4.603  1.00  0.00    -0.269 OA
ENDBRANCH  28  29
ENDBRANCH   5  28
ENDBRANCH   3   5
ENDBRANCH   1   2
BRANCH   1  32
ATOM     32  CB  ARG     5       0.986 -18.009   9.627  1.00  0.00     0.036 C 
BRANCH  32  33
ATOM     33  CG  ARG     5      -0.079 -18.799  10.389  1.00  0.00     0.029 C 
BRANCH  33  34
ATOM     34  CD  ARG     5      -1.462 -18.412   9.876  1.00  0.00     0.145 C 
BRANCH  34  35
ATOM     35  NE  ARG     5      -1.528 -18.423   8.395  1.00  0.00    -0.083 NA
ATOM     36  CZ  ARG     5      -1.826 -19.498   7.650  1.00  0.00     0.782 C 
ATOM     37  NH2 ARG     5      -2.107 -19.380   6.342  1.00  0.00     0.063 N 
ATOM     38  NH1 ARG     5      -1.978 -20.696   8.197  1.00  0.00     0.063 N 
ENDBRANCH  34  35
ENDBRANCH  33  34
ENDBRANCH  32  33
ENDBRANCH   1  32
BRANCH   1  39
ATOM     39  C   ARG     5       2.076 -20.157   8.921  1.00  0.00     0.256 C 
ATOM     40  O   ARG     5       1.321 -20.307   7.955  1.00  0.00    -0.270 OA
ATOM     41  N   PRO     6       2.784 -21.159   9.450  1.00  0.00    -0.312 N 
ATOM     42  CA  PRO     6       2.646 -22.577   9.049  1.00  0.00     0.165 C 
ATOM     43  CD  PRO     6       3.917 -21.006  10.390  1.00  0.00     0.105 C 
ATOM     44  CB  PRO     6       3.575 -23.343   9.993  1.00  0.00     0.034 C 
ATOM     45  CG  PRO     6       4.673 -22.331  10.286  1.00  0.00     0.027 C 
BRANCH  42  46
ATOM     46  C   PRO     6       1.194 -23.062   9.194  1.00  0.00     0.272 C 
ATOM     47  N   SER     7       0.711 -23.938   8.324  1.00  0.00    -0.226 NA
ATOM     48  O   PRO     6       0.457 -22.559  10.048  1.00  0.00    -0.269 OA
BRANCH  47  49
ATOM     49  CA  SER     7       1.427 -24.530   7.168  1.00  0.00     0.219 C 
BRANCH  49  50
ATOM     50  C   SER     7       0.459 -24.991   6.065  1.00  0.00     0.277 C 
ATOM     51  O   SER     7       0.725 -25.995   5.414  1.00  0.00    -0.268 OA
ATOM     52  N   GLY     8      -0.726 -24.396   6.052  1.00  0.00    -0.226 NA
BRANCH  52  53
ATOM     53  CA  GLY     8      -1.686 -24.577   4.931  1.00  0.00     0.218 C 
BRANCH  53  54
ATOM     54  C   GLY     8      -2.800 -23.530   4.752  1.00  0.00     0.277 C 
ATOM     55  N   GLY     9      -3.376 -23.053   5.864  1.00  0.00    -0.226 NA
ATOM     56  O   GLY     8      -3.096 -23.135   3.636  1.00  0.00    -0.268 OA
BRANCH  55  57
ATOM     57  CA  GLY     9      -4.483 -22.075   5.843  1.00  0.00     0.218 C 
BRANCH  57  58
ATOM     58  C   GLY     9      -5.058 -21.841   7.260  1.00  0.00     0.277 C 
ATOM     59  O   GLY     9      -4.878 -22.685   8.128  1.00  0.00    -0.268 OA
ATOM     60  N   CYS    10      -5.882 -20.836   7.523  1.00  0.00    -0.228 NA
BRANCH  60  61
ATOM     61  CA  CYS    10      -6.418 -19.825   6.578  1.00  0.00     0.198 C 
BRANCH  61  62
ATOM     62  CB  CYS    10      -7.941 -19.915   6.428  1.00  0.00     0.103 C 
ATOM     63  SG  CYS    10      -8.743 -21.516   6.781  1.00  0.00    -0.080 SA
ENDBRANCH  61  62
BRANCH  61  64
ATOM     64  C   CYS    10      -6.161 -18.377   7.000  1.00  0.00     0.275 C 
ATOM     65  O   CYS    10      -5.019 -17.925   6.932  1.00  0.00    -0.268 OA
ATOM     66  N   GLY    11      -7.259 -17.648   7.105  1.00  0.00    -0.225 NA
BRANCH  66  67
ATOM     67  CA  GLY    11      -7.375 -16.570   8.099  1.00  0.00     0.226 C 
BRANCH  67  68
ATOM     68  C   GLY    11      -7.004 -15.290   7.334  1.00  0.00     0.211 C 
ATOM     69  O2  GLY    11      -7.512 -15.175   6.197  1.00  0.00    -0.646 OA
ATOM     70  O1  GLY    11      -6.563 -14.342   8.023  1.00  0.00    -0.646 OA
ENDBRANCH  67  68
ENDBRANCH  66  67
ENDBRANCH  61  64
ENDBRANCH  60  61
ENDBRANCH  57  58
ENDBRANCH  55  57
ENDBRANCH  53  54
ENDBRANCH  52  53
ENDBRANCH  49  50
BRANCH  49  71
ATOM     71  CB  SER     7       2.261 -25.745   7.581  1.00  0.00     0.216 C 
ATOM     72  OG  SER     7       1.604 -26.450   8.635  1.00  0.00    -0.218 OA
ENDBRANCH  49  71
ENDBRANCH  47  49
ENDBRANCH  42  46
ENDBRANCH   1  39
TORSDOF 33
ENDMDL
MODEL 3
REMARK VINA RESULT:      -4.5     14.399     21.332
REMARK WARNING: 32 MAX_TORS EXCEEDED!!!
REMARK  33 active torsions:
REMARK  status: ('A' for Active; 'I' for Inactive)
REMARK    1  A    between atoms: CA_2  and  C_8 
REMARK    2  A    between atoms: CA_2  and  CB_3 
REMARK    3  A    between atoms: CB_3  and  CG_4 
REMARK    4  A    between atoms: CG_4  and  CD_5 
REMARK       I    between atoms: C_8  and  N_10 
REMARK    5  A    between atoms: N_10  and  CA_11 
REMARK    6  A    between atoms: CA_11  and  C_12 
REMARK       I    between atoms: C_12  and  N_14 
REMARK    7  A    between atoms: N_14  and  CA_15 
REMARK    8  A    between atoms: CA_15  and  C_20 
REMARK    9  A    between atoms: CA_15  and  CB_16 
REMARK   10  A    between atoms: CB_16  and  CG_17 
REMARK       I    between atoms: C_20  and  N_22 
REMARK   11  A    between atoms: N_22  and  CA_23 
REMARK   12  A    between atoms: CA_23  and  CB_24 
REMARK   13  A    between atoms: CA_23  and  C_28 
REMARK   14  A    between atoms: CB_24  and  CG_25 
REMARK       I    between atoms: C_28  and  N_30 
REMARK   15  A    between atoms: N_30  and  CA_31 
REMARK   16  A    between atoms: CA_31  and  CB_32 
REMARK   17  A    between atoms: CA_31  and  C_39 
REMARK   18  A    between atoms: CB_32  and  CG_33 
REMARK   19  A    between atoms: CG_33  and  CD_34 
REMARK   20  A    between atoms: CD_34  and  NE_35 
REMARK       I    between atoms: C_39  and  N_41 
REMARK   21  A    between atoms: CA_42  and  C_46 
REMARK       I    between atoms: C_46  and  N_48 
REMARK   22  A    between atoms: N_48  and  CA_49 
REMARK   23  A    between atoms: CA_49  and  C_52 
REMARK   24  A    between atoms: CA_49  and  CB_50 
REMARK       I    between atoms: C_52  and  N_54 
REMARK   25  A    between atoms: N_54  and  CA_55 
REMARK   26  A    between atoms: CA_55  and  C_56 
REMARK       I    between atoms: C_56  and  N_58 
REMARK   27  A    between atoms: N_58  and  CA_59 
REMARK   28  A    between atoms: CA_59  and  C_60 
REMARK       I    between atoms: C_60  and  N_62 
REMARK   29  A    between atoms: N_62  and  CA_63 
REMARK   30  A    between atoms: CA_63  and  CB_64 
REMARK   31  A    between atoms: CA_63  and  C_66 
REMARK       I    between atoms: C_66  and  N_68 
REMARK   32  A    between atoms: N_68  and  CA_69 
REMARK   33  A    between atoms: CA_69  and  C_70 
ROOT
ATOM      1  CA  ARG     5      -9.381  -5.252   4.144  1.00  0.00     0.185 C 
ENDROOT
BRANCH   1   2
ATOM      2  N   ARG     5      -8.804  -6.036   5.252  1.00  0.00    -0.229 NA
ATOM      3  C   ASN     4      -7.522  -6.076   5.583  1.00  0.00     0.275 C 
ATOM      4  O   ASN     4      -6.612  -5.671   4.868  1.00  0.00    -0.268 OA
BRANCH   3   5
ATOM      5  CA  ASN     4      -7.251  -6.983   6.801  1.00  0.00     0.196 C 
BRANCH   5   6
ATOM      6  N   ASN     4      -7.909  -8.296   6.632  1.00  0.00    -0.228 NA
ATOM      7  C   LEU     3      -8.465  -8.968   7.637  1.00  0.00     0.274 C 
ATOM      8  O   LEU     3      -8.505  -8.581   8.809  1.00  0.00    -0.268 OA
BRANCH   7   9
ATOM      9  CA  LEU     3      -9.140 -10.280   7.240  1.00  0.00     0.186 C 
BRANCH   9  10
ATOM     10  N   LEU     3     -10.537 -10.013   6.829  1.00  0.00    -0.229 NA
ATOM     11  C   GLY     2     -11.577 -10.164   7.654  1.00  0.00     0.277 C 
ATOM     12  O   GLY     2     -11.456 -10.382   8.851  1.00  0.00    -0.268 OA
BRANCH  11  13
ATOM     13  CA  GLY     2     -12.967  -9.879   7.049  1.00  0.00     0.218 C 
BRANCH  13  14
ATOM     14  N   GLY     2     -13.353 -10.600   5.813  1.00  0.00    -0.226 NA
ATOM     15  C   GLU     1     -13.475 -11.932   5.777  1.00  0.00     0.289 C 
ATOM     16  O   GLU     1     -13.437 -12.597   6.799  1.00  0.00    -0.268 OA
BRANCH  15  17
ATOM     17  CA  GLU     1     -13.755 -12.620   4.414  1.00  0.00     0.381 C 
ATOM     18  N   GLU     1     -14.975 -12.133   3.745  1.00  0.00     0.626 N 
BRANCH  17  19
ATOM     19  CB  GLU     1     -12.515 -12.446   3.512  1.00  0.00     0.060 C 
BRANCH  19  20
ATOM     20  CG  GLU     1     -11.114 -12.650   4.110  1.00  0.00     0.100 C 
BRANCH  20  21
ATOM     21  CD  GLU     1     -10.830 -14.115   4.473  1.00  0.00     0.185 C 
ATOM     22  OE1 GLU     1     -10.755 -14.421   5.677  1.00  0.00    -0.647 OA
ATOM     23  OE2 GLU     1     -10.654 -14.930   3.551  1.00  0.00    -0.647 OA
ENDBRANCH  20  21
ENDBRANCH  19  20
ENDBRANCH  17  19
ENDBRANCH  15  17
ENDBRANCH  13  14
ENDBRANCH  11  13
ENDBRANCH   9  10
BRANCH   9  24
ATOM     24  CB  LEU     3      -8.352 -10.910   6.085  1.00  0.00     0.034 C 
BRANCH  24  25
ATOM     25  CG  LEU     3      -7.483 -12.109   6.507  1.00  0.00     0.002 C 
ATOM     26  CD1 LEU     3      -6.093 -11.615   6.904  1.00  0.00     0.000 C 
ATOM     27  CD2 LEU     3      -8.120 -12.873   7.673  1.00  0.00     0.000 C 
ENDBRANCH  24  25
ENDBRANCH   9  24
ENDBRANCH   7   9
ENDBRANCH   5   6
BRANCH   5  28
ATOM     28  CB  ASN     4      -5.743  -7.172   7.038  1.00  0.00     0.126 C 
BRANCH  28  29
ATOM     29  CG  ASN     4      -5.325  -7.028   8.514  1.00  0.00     0.276 C 
ATOM     30  ND2 ASN     4      -4.323  -7.768   8.909  1.00  0.00    -0.107 N 
ATOM     31  OD1 ASN     4      -5.827  -6.234   9.287  1.00  0.00    -0.269 OA
ENDBRANCH  28  29
ENDBRANCH   5  28
ENDBRANCH   3   5
ENDBRANCH   1   2
BRANCH   1  32
ATOM     32  CB  ARG     5     -10.470  -6.057   3.427  1.00  0.00     0.036 C 
BRANCH  32  33
ATOM     33  CG  ARG     5     -11.269  -5.245   2.406  1.00  0.00     0.029 C 
BRANCH  33  34
ATOM     34  CD  ARG     5     -11.944  -6.192   1.420  1.00  0.00     0.145 C 
BRANCH  34  35
ATOM     35  NE  ARG     5     -12.466  -7.409   2.088  1.00  0.00    -0.083 NA
ATOM     36  CZ  ARG     5     -13.747  -7.601   2.435  1.00  0.00     0.782 C 
ATOM     37  NH2 ARG     5     -14.191  -8.812   2.808  1.00  0.00     0.063 N 
ATOM     38  NH1 ARG     5     -14.649  -6.639   2.303  1.00  0.00     0.063 N 
ENDBRANCH  34  35
ENDBRANCH  33  34
ENDBRANCH  32  33
ENDBRANCH   1  32
BRANCH   1  39
ATOM     39  C   ARG     5      -9.984  -3.947   4.696  1.00  0.00     0.256 C 
ATOM     40  O   ARG     5     -10.624  -3.966   5.752  1.00  0.00    -0.270 OA
ATOM     41  N   PRO     6      -9.692  -2.816   4.046  1.00  0.00    -0.312 N 
ATOM     42  CA  PRO     6     -10.214  -1.483   4.421  1.00  0.00     0.165 C 
ATOM     43  CD  PRO     6      -8.691  -2.682   2.965  1.00  0.00     0.105 C 
ATOM     44  CB  PRO     6      -9.692  -0.539   3.337  1.00  0.00     0.034 C 
ATOM     45  CG  PRO     6      -8.378  -1.186   2.925  1.00  0.00     0.027 C 
BRANCH  42  46
ATOM     46  C   PRO     6     -11.752  -1.474   4.462  1.00  0.00     0.272 C 
ATOM     47  N   SER     7     -12.371  -1.056   5.558  1.00  0.00    -0.226 NA
ATOM     48  O   PRO     6     -12.398  -1.952   3.525  1.00  0.00    -0.269 OA
BRANCH  47  49
ATOM     49  CA  SER     7     -11.735  -0.582   6.811  1.00  0.00     0.219 C 
BRANCH  49  50
ATOM     50  C   SER     7     -12.234  -1.362   8.040  1.00  0.00     0.277 C 
ATOM     51  O   SER     7     -11.444  -2.053   8.674  1.00  0.00    -0.268 OA
ATOM     52  N   GLY     8     -13.446  -1.044   8.472  1.00  0.00    -0.226 NA
BRANCH  52  53
ATOM     53  CA  GLY     8     -14.148  -1.845   9.509  1.00  0.00     0.218 C 
BRANCH  53  54
ATOM     54  C   GLY     8     -15.150  -2.917   9.044  1.00  0.00     0.277 C 
ATOM     55  N   GLY     9     -15.463  -2.938   7.740  1.00  0.00    -0.226 NA
ATOM     56  O   GLY     8     -15.593  -3.729   9.839  1.00  0.00    -0.268 OA
BRANCH  55  57
ATOM     57  CA  GLY     9     -16.438  -3.884   7.160  1.00  0.00     0.218 C 
BRANCH  57  58
ATOM     58  C   GLY     9     -15.748  -4.904   6.222  1.00  0.00     0.277 C 
ATOM     59  O   GLY     9     -15.648  -4.649   5.029  1.00  0.00    -0.268 OA
ATOM     60  N   CYS    10     -15.410  -6.117   6.637  1.00  0.00    -0.228 NA
BRANCH  60  61
ATOM     61  CA  CYS    10     -15.640  -6.721   7.971  1.00  0.00     0.198 C 
BRANCH  61  62
ATOM     62  CB  CYS    10     -16.202  -8.144   7.880  1.00  0.00     0.103 C 
ATOM     63  SG  CYS    10     -17.293  -8.544   6.471  1.00  0.00    -0.080 SA
ENDBRANCH  61  62
BRANCH  61  64
ATOM     64  C   CYS    10     -14.374  -6.865   8.819  1.00  0.00     0.275 C 
ATOM     65  O   CYS    10     -14.299  -7.781   9.637  1.00  0.00    -0.268 OA
ATOM     66  N   GLY    11     -13.344  -6.170   8.364  1.00  0.00    -0.225 NA
BRANCH  66  67
ATOM     67  CA  GLY    11     -12.347  -5.590   9.274  1.00  0.00     0.226 C 
BRANCH  67  68
ATOM     68  C   GLY    11     -10.992  -5.875   8.606  1.00  0.00     0.211 C 
ATOM     69  O2  GLY    11      -9.985  -5.601   9.293  1.00  0.00    -0.646 OA
ATOM     70  O1  GLY    11     -11.009  -6.673   7.641  1.00  0.00    -0.646 OA
ENDBRANCH  67  68
ENDBRANCH  66  67
ENDBRANCH  61  64
ENDBRANCH  60  61
ENDBRANCH  57  58
ENDBRANCH  55  57
ENDBRANCH  53  54
ENDBRANCH  52  53
ENDBRANCH  49  50
BRANCH  49  71
ATOM     71  CB  SER     7     -12.020   0.900   7.064  1.00  0.00     0.216 C 
ATOM     72  OG  SER     7     -10.946   1.695   6.559  1.00  0.00    -0.218 OA
ENDBRANCH  49  71
ENDBRANCH  47  49
ENDBRANCH  42  46
ENDBRANCH   1  39
TORSDOF 33
ENDMDL
MODEL 4
REMARK VINA RESULT:      -4.4     18.361     23.172
REMARK WARNING: 32 MAX_TORS EXCEEDED!!!
REMARK  33 active torsions:
REMARK  status: ('A' for Active; 'I' for Inactive)
REMARK    1  A    between atoms: CA_2  and  C_8 
REMARK    2  A    between atoms: CA_2  and  CB_3 
REMARK    3  A    between atoms: CB_3  and  CG_4 
REMARK    4  A    between atoms: CG_4  and  CD_5 
REMARK       I    between atoms: C_8  and  N_10 
REMARK    5  A    between atoms: N_10  and  CA_11 
REMARK    6  A    between atoms: CA_11  and  C_12 
REMARK       I    between atoms: C_12  and  N_14 
REMARK    7  A    between atoms: N_14  and  CA_15 
REMARK    8  A    between atoms: CA_15  and  C_20 
REMARK    9  A    between atoms: CA_15  and  CB_16 
REMARK   10  A    between atoms: CB_16  and  CG_17 
REMARK       I    between atoms: C_20  and  N_22 
REMARK   11  A    between atoms: N_22  and  CA_23 
REMARK   12  A    between atoms: CA_23  and  CB_24 
REMARK   13  A    between atoms: CA_23  and  C_28 
REMARK   14  A    between atoms: CB_24  and  CG_25 
REMARK       I    between atoms: C_28  and  N_30 
REMARK   15  A    between atoms: N_30  and  CA_31 
REMARK   16  A    between atoms: CA_31  and  CB_32 
REMARK   17  A    between atoms: CA_31  and  C_39 
REMARK   18  A    between atoms: CB_32  and  CG_33 
REMARK   19  A    between atoms: CG_33  and  CD_34 
REMARK   20  A    between atoms: CD_34  and  NE_35 
REMARK       I    between atoms: C_39  and  N_41 
REMARK   21  A    between atoms: CA_42  and  C_46 
REMARK       I    between atoms: C_46  and  N_48 
REMARK   22  A    between atoms: N_48  and  CA_49 
REMARK   23  A    between atoms: CA_49  and  C_52 
REMARK   24  A    between atoms: CA_49  and  CB_50 
REMARK       I    between atoms: C_52  and  N_54 
REMARK   25  A    between atoms: N_54  and  CA_55 
REMARK   26  A    between atoms: CA_55  and  C_56 
REMARK       I    between atoms: C_56  and  N_58 
REMARK   27  A    between atoms: N_58  and  CA_59 
REMARK   28  A    between atoms: CA_59  and  C_60 
REMARK       I    between atoms: C_60  and  N_62 
REMARK   29  A    between atoms: N_62  and  CA_63 
REMARK   30  A    between atoms: CA_63  and  CB_64 
REMARK   31  A    between atoms: CA_63  and  C_66 
REMARK       I    between atoms: C_66  and  N_68 
REMARK   32  A    between atoms: N_68  and  CA_69 
REMARK   33  A    between atoms: CA_69  and  C_70 
ROOT
ATOM      1  CA  ARG     5      10.815  -0.361   8.443  1.00  0.00     0.185 C 
ENDROOT
BRANCH   1   2
ATOM      2  N   ARG     5      12.096  -0.087   7.765  1.00  0.00    -0.229 NA
ATOM      3  C   ASN     4      12.388  -0.397   6.512  1.00  0.00     0.275 C 
ATOM      4  O   ASN     4      11.734  -1.174   5.824  1.00  0.00    -0.268 OA
BRANCH   3   5
ATOM      5  CA  ASN     4      13.810   0.042   6.106  1.00  0.00     0.196 C 
BRANCH   5   6
ATOM      6  N   ASN     4      14.519  -1.057   5.417  1.00  0.00    -0.228 NA
ATOM      7  C   LEU     3      15.842  -1.193   5.432  1.00  0.00     0.274 C 
ATOM      8  O   LEU     3      16.624  -0.437   6.017  1.00  0.00    -0.268 OA
BRANCH   7   9
ATOM      9  CA  LEU     3      16.372  -2.428   4.703  1.00  0.00     0.186 C 
BRANCH   9  10
ATOM     10  N   LEU     3      16.647  -3.501   5.684  1.00  0.00    -0.229 NA
ATOM     11  C   GLY     2      17.777  -4.214   5.680  1.00  0.00     0.277 C 
ATOM     12  O   GLY     2      18.738  -3.943   4.975  1.00  0.00    -0.268 OA
BRANCH  11  13
ATOM     13  CA  GLY     2      17.883  -5.321   6.751  1.00  0.00     0.218 C 
BRANCH  13  14
ATOM     14  N   GLY     2      17.260  -6.635   6.461  1.00  0.00    -0.226 NA
ATOM     15  C   GLU     1      17.940  -7.628   5.877  1.00  0.00     0.289 C 
ATOM     16  O   GLU     1      19.146  -7.553   5.708  1.00  0.00    -0.268 OA
BRANCH  15  17
ATOM     17  CA  GLU     1      17.181  -8.926   5.491  1.00  0.00     0.381 C 
ATOM     18  N   GLU     1      16.210  -9.368   6.508  1.00  0.00     0.626 N 
BRANCH  17  19
ATOM     19  CB  GLU     1      16.500  -8.709   4.124  1.00  0.00     0.060 C 
BRANCH  19  20
ATOM     20  CG  GLU     1      15.093  -8.095   4.072  1.00  0.00     0.100 C 
BRANCH  20  21
ATOM     21  CD  GLU     1      15.085  -6.674   3.490  1.00  0.00     0.185 C 
ATOM     22  OE1 GLU     1      16.174  -6.151   3.191  1.00  0.00    -0.647 OA
ATOM     23  OE2 GLU     1      13.994  -6.089   3.369  1.00  0.00    -0.647 OA
ENDBRANCH  20  21
ENDBRANCH  19  20
ENDBRANCH  17  19
ENDBRANCH  15  17
ENDBRANCH  13  14
ENDBRANCH  11  13
ENDBRANCH   9  10
BRANCH   9  24
ATOM     24  CB  LEU     3      15.322  -2.887   3.684  1.00  0.00     0.034 C 
BRANCH  24  25
ATOM     25  CG  LEU     3      15.752  -2.696   2.219  1.00  0.00     0.002 C 
ATOM     26  CD1 LEU     3      15.360  -1.295   1.752  1.00  0.00     0.000 C 
ATOM     27  CD2 LEU     3      17.262  -2.900   2.053  1.00  0.00     0.000 C 
ENDBRANCH  24  25
ENDBRANCH   9  24
ENDBRANCH   7   9
ENDBRANCH   5   6
BRANCH   5  28
ATOM     28  CB  ASN     4      13.780   1.295   5.214  1.00  0.00     0.126 C 
BRANCH  28  29
ATOM     29  CG  ASN     4      14.047   2.606   5.979  1.00  0.00     0.276 C 
ATOM     30  ND2 ASN     4      15.015   2.578   6.856  1.00  0.00    -0.107 N 
ATOM     31  OD1 ASN     4      13.460   3.649   5.765  1.00  0.00    -0.269 OA
ENDBRANCH  28  29
ENDBRANCH   5  28
ENDBRANCH   3   5
ENDBRANCH   1   2
BRANCH   1  32
ATOM     32  CB  ARG     5      11.060  -0.959   9.833  1.00  0.00     0.036 C 
BRANCH  32  33
ATOM     33  CG  ARG     5      10.267  -2.237  10.106  1.00  0.00     0.029 C 
BRANCH  33  34
ATOM     34  CD  ARG     5       9.371  -2.544   8.910  1.00  0.00     0.145 C 
BRANCH  34  35
ATOM     35  NE  ARG     5       8.582  -3.784   9.111  1.00  0.00    -0.083 NA
ATOM     36  CZ  ARG     5       7.275  -3.819   9.406  1.00  0.00     0.782 C 
ATOM     37  NH2 ARG     5       6.577  -4.964   9.331  1.00  0.00     0.063 N 
ATOM     38  NH1 ARG     5       6.594  -2.710   9.659  1.00  0.00     0.063 N 
ENDBRANCH  34  35
ENDBRANCH  33  34
ENDBRANCH  32  33
ENDBRANCH   1  32
BRANCH   1  39
ATOM     39  C   ARG     5      10.012   0.946   8.578  1.00  0.00     0.256 C 
ATOM     40  O   ARG     5       8.778   0.909   8.585  1.00  0.00    -0.270 OA
ATOM     41  N   PRO     6      10.705   2.070   8.786  1.00  0.00    -0.312 N 
ATOM     42  CA  PRO     6      10.095   3.413   8.904  1.00  0.00     0.165 C 
ATOM     43  CD  PRO     6      12.151   2.142   9.091  1.00  0.00     0.105 C 
ATOM     44  CB  PRO     6      11.280   4.372   9.031  1.00  0.00     0.034 C 
ATOM     45  CG  PRO     6      12.334   3.521   9.725  1.00  0.00     0.027 C 
BRANCH  42  46
ATOM     46  C   PRO     6       9.244   3.753   7.668  1.00  0.00     0.272 C 
ATOM     47  N   SER     7       8.014   4.219   7.834  1.00  0.00    -0.226 NA
ATOM     48  O   PRO     6       9.666   3.492   6.538  1.00  0.00    -0.269 OA
BRANCH  47  49
ATOM     49  CA  SER     7       7.321   4.457   9.123  1.00  0.00     0.219 C 
BRANCH  49  50
ATOM     50  C   SER     7       6.017   3.647   9.233  1.00  0.00     0.277 C 
ATOM     51  O   SER     7       5.997   2.485   8.840  1.00  0.00    -0.268 OA
ATOM     52  N   GLY     8       5.058   4.193   9.968  1.00  0.00    -0.226 NA
BRANCH  52  53
ATOM     53  CA  GLY     8       3.678   3.641   9.998  1.00  0.00     0.218 C 
BRANCH  53  54
ATOM     54  C   GLY     8       2.676   4.131   8.938  1.00  0.00     0.277 C 
ATOM     55  N   GLY     9       1.491   3.506   8.879  1.00  0.00    -0.226 NA
ATOM     56  O   GLY     8       2.955   5.079   8.223  1.00  0.00    -0.268 OA
BRANCH  55  57
ATOM     57  CA  GLY     9       0.450   3.843   7.888  1.00  0.00     0.218 C 
BRANCH  57  58
ATOM     58  C   GLY     9      -0.811   4.429   8.568  1.00  0.00     0.277 C 
ATOM     59  O   GLY     9      -0.683   5.142   9.555  1.00  0.00    -0.268 OA
ATOM     60  N   CYS    10      -2.032   4.050   8.220  1.00  0.00    -0.228 NA
BRANCH  60  61
ATOM     61  CA  CYS    10      -2.420   3.035   7.210  1.00  0.00     0.198 C 
BRANCH  61  62
ATOM     62  CB  CYS    10      -3.222   1.880   7.821  1.00  0.00     0.103 C 
ATOM     63  SG  CYS    10      -4.826   2.271   8.600  1.00  0.00    -0.080 SA
ENDBRANCH  61  62
BRANCH  61  64
ATOM     64  C   CYS    10      -3.316   3.574   6.094  1.00  0.00     0.275 C 
ATOM     65  O   CYS    10      -3.817   2.787   5.292  1.00  0.00    -0.268 OA
ATOM     66  N   GLY    11      -3.723   4.818   6.288  1.00  0.00    -0.225 NA
BRANCH  66  67
ATOM     67  CA  GLY    11      -3.944   5.738   5.164  1.00  0.00     0.226 C 
BRANCH  67  68
ATOM     68  C   GLY    11      -5.278   6.432   5.481  1.00  0.00     0.211 C 
ATOM     69  O2  GLY    11      -5.746   7.145   4.567  1.00  0.00    -0.646 OA
ATOM     70  O1  GLY    11      -5.942   5.948   6.426  1.00  0.00    -0.646 OA
ENDBRANCH  67  68
ENDBRANCH  66  67
ENDBRANCH  61  64
ENDBRANCH  60  61
ENDBRANCH  57  58
ENDBRANCH  55  57
ENDBRANCH  53  54
ENDBRANCH  52  53
ENDBRANCH  49  50
BRANCH  49  71
ATOM     71  CB  SER     7       6.958   5.932   9.306  1.00  0.00     0.216 C 
ATOM     72  OG  SER     7       7.595   6.719   8.299  1.00  0.00    -0.218 OA
ENDBRANCH  49  71
ENDBRANCH  47  49
ENDBRANCH  42  46
ENDBRANCH   1  39
TORSDOF 33
ENDMDL
MODEL 5
REMARK VINA RESULT:      -4.3     23.496     30.542
REMARK WARNING: 32 MAX_TORS EXCEEDED!!!
REMARK  33 active torsions:
REMARK  status: ('A' for Active; 'I' for Inactive)
REMARK    1  A    between atoms: CA_2  and  C_8 
REMARK    2  A    between atoms: CA_2  and  CB_3 
REMARK    3  A    between atoms: CB_3  and  CG_4 
REMARK    4  A    between atoms: CG_4  and  CD_5 
REMARK       I    between atoms: C_8  and  N_10 
REMARK    5  A    between atoms: N_10  and  CA_11 
REMARK    6  A    between atoms: CA_11  and  C_12 
REMARK       I    between atoms: C_12  and  N_14 
REMARK    7  A    between atoms: N_14  and  CA_15 
REMARK    8  A    between atoms: CA_15  and  C_20 
REMARK    9  A    between atoms: CA_15  and  CB_16 
REMARK   10  A    between atoms: CB_16  and  CG_17 
REMARK       I    between atoms: C_20  and  N_22 
REMARK   11  A    between atoms: N_22  and  CA_23 
REMARK   12  A    between atoms: CA_23  and  CB_24 
REMARK   13  A    between atoms: CA_23  and  C_28 
REMARK   14  A    between atoms: CB_24  and  CG_25 
REMARK       I    between atoms: C_28  and  N_30 
REMARK   15  A    between atoms: N_30  and  CA_31 
REMARK   16  A    between atoms: CA_31  and  CB_32 
REMARK   17  A    between atoms: CA_31  and  C_39 
REMARK   18  A    between atoms: CB_32  and  CG_33 
REMARK   19  A    between atoms: CG_33  and  CD_34 
REMARK   20  A    between atoms: CD_34  and  NE_35 
REMARK       I    between atoms: C_39  and  N_41 
REMARK   21  A    between atoms: CA_42  and  C_46 
REMARK       I    between atoms: C_46  and  N_48 
REMARK   22  A    between atoms: N_48  and  CA_49 
REMARK   23  A    between atoms: CA_49  and  C_52 
REMARK   24  A    between atoms: CA_49  and  CB_50 
REMARK       I    between atoms: C_52  and  N_54 
REMARK   25  A    between atoms: N_54  and  CA_55 
REMARK   26  A    between atoms: CA_55  and  C_56 
REMARK       I    between atoms: C_56  and  N_58 
REMARK   27  A    between atoms: N_58  and  CA_59 
REMARK   28  A    between atoms: CA_59  and  C_60 
REMARK       I    between atoms: C_60  and  N_62 
REMARK   29  A    between atoms: N_62  and  CA_63 
REMARK   30  A    between atoms: CA_63  and  CB_64 
REMARK   31  A    between atoms: CA_63  and  C_66 
REMARK       I    between atoms: C_66  and  N_68 
REMARK   32  A    between atoms: N_68  and  CA_69 
REMARK   33  A    between atoms: CA_69  and  C_70 
ROOT
ATOM      1  CA  ARG     5      -0.620   6.617   9.026  1.00  0.00     0.185 C 
ENDROOT
BRANCH   1   2
ATOM      2  N   ARG     5       0.450   5.625   9.241  1.00  0.00    -0.229 NA
ATOM      3  C   ASN     4       0.785   4.657   8.401  1.00  0.00     0.275 C 
ATOM      4  O   ASN     4       0.094   4.297   7.453  1.00  0.00    -0.268 OA
BRANCH   3   5
ATOM      5  CA  ASN     4       1.957   3.799   8.919  1.00  0.00     0.196 C 
BRANCH   5   6
ATOM      6  N   ASN     4       3.189   4.609   9.030  1.00  0.00    -0.228 NA
ATOM      7  C   LEU     3       4.391   4.081   9.246  1.00  0.00     0.274 C 
ATOM      8  O   LEU     3       4.622   2.874   9.369  1.00  0.00    -0.268 OA
BRANCH   7   9
ATOM      9  CA  LEU     3       5.541   5.087   9.273  1.00  0.00     0.186 C 
BRANCH   9  10
ATOM     10  N   LEU     3       6.541   4.725   8.245  1.00  0.00    -0.229 NA
ATOM     11  C   GLY     2       7.716   4.162   8.542  1.00  0.00     0.277 C 
ATOM     12  O   GLY     2       8.000   3.757   9.660  1.00  0.00    -0.268 OA
BRANCH  11  13
ATOM     13  CA  GLY     2       8.655   3.884   7.349  1.00  0.00     0.218 C 
BRANCH  13  14
ATOM     14  N   GLY     2      10.063   4.337   7.449  1.00  0.00    -0.226 NA
ATOM     15  C   GLU     1      10.938   4.158   6.453  1.00  0.00     0.289 C 
ATOM     16  O   GLU     1      10.574   3.766   5.357  1.00  0.00    -0.268 OA
BRANCH  15  17
ATOM     17  CA  GLU     1      12.423   4.544   6.686  1.00  0.00     0.381 C 
ATOM     18  N   GLU     1      13.370   3.451   6.404  1.00  0.00     0.626 N 
BRANCH  17  19
ATOM     19  CB  GLU     1      12.744   5.794   5.842  1.00  0.00     0.060 C 
BRANCH  19  20
ATOM     20  CG  GLU     1      14.094   5.886   5.114  1.00  0.00     0.100 C 
BRANCH  20  21
ATOM     21  CD  GLU     1      13.941   6.125   3.604  1.00  0.00     0.185 C 
ATOM     22  OE1 GLU     1      13.842   7.297   3.198  1.00  0.00    -0.647 OA
ATOM     23  OE2 GLU     1      13.891   5.137   2.851  1.00  0.00    -0.647 OA
ENDBRANCH  20  21
ENDBRANCH  19  20
ENDBRANCH  17  19
ENDBRANCH  15  17
ENDBRANCH  13  14
ENDBRANCH  11  13
ENDBRANCH   9  10
BRANCH   9  24
ATOM     24  CB  LEU     3       4.977   6.488   9.004  1.00  0.00     0.034 C 
BRANCH  24  25
ATOM     25  CG  LEU     3       5.539   7.575   9.937  1.00  0.00     0.002 C 
ATOM     26  CD1 LEU     3       6.864   8.089   9.378  1.00  0.00     0.000 C 
ATOM     27  CD2 LEU     3       4.551   8.735  10.096  1.00  0.00     0.000 C 
ENDBRANCH  24  25
ENDBRANCH   9  24
ENDBRANCH   7   9
ENDBRANCH   5   6
BRANCH   5  28
ATOM     28  CB  ASN     4       1.624   3.150  10.273  1.00  0.00     0.126 C 
BRANCH  28  29
ATOM     29  CG  ASN     4       0.637   1.970  10.169  1.00  0.00     0.276 C 
ATOM     30  ND2 ASN     4      -0.621   2.246  10.390  1.00  0.00    -0.107 N 
ATOM     31  OD1 ASN     4       0.958   0.845   9.838  1.00  0.00    -0.269 OA
ENDBRANCH  28  29
ENDBRANCH   5  28
ENDBRANCH   3   5
ENDBRANCH   1   2
BRANCH   1  32
ATOM     32  CB  ARG     5      -1.622   6.586  10.185  1.00  0.00     0.036 C 
BRANCH  32  33
ATOM     33  CG  ARG     5      -3.053   6.256   9.758  1.00  0.00     0.029 C 
BRANCH  33  34
ATOM     34  CD  ARG     5      -3.277   4.750   9.856  1.00  0.00     0.145 C 
BRANCH  34  35
ATOM     35  NE  ARG     5      -3.044   4.069   8.560  1.00  0.00    -0.083 NA
ATOM     36  CZ  ARG     5      -3.933   4.006   7.558  1.00  0.00     0.782 C 
ATOM     37  NH2 ARG     5      -3.570   3.592   6.333  1.00  0.00     0.063 N 
ATOM     38  NH1 ARG     5      -5.167   4.467   7.701  1.00  0.00     0.063 N 
ENDBRANCH  34  35
ENDBRANCH  33  34
ENDBRANCH  32  33
ENDBRANCH   1  32
BRANCH   1  39
ATOM     39  C   ARG     5      -0.003   8.024   8.915  1.00  0.00     0.256 C 
ATOM     40  O   ARG     5       1.123   8.237   9.375  1.00  0.00    -0.270 OA
ATOM     41  N   PRO     6      -0.688   8.939   8.223  1.00  0.00    -0.312 N 
ATOM     42  CA  PRO     6      -0.257  10.344   8.049  1.00  0.00     0.165 C 
ATOM     43  CD  PRO     6      -1.885   8.670   7.396  1.00  0.00     0.105 C 
ATOM     44  CB  PRO     6      -1.401  11.012   7.284  1.00  0.00     0.034 C 
ATOM     45  CG  PRO     6      -1.968   9.871   6.453  1.00  0.00     0.027 C 
BRANCH  42  46
ATOM     46  C   PRO     6      -0.027  11.033   9.404  1.00  0.00     0.272 C 
ATOM     47  N   SER     7       0.974  11.892   9.536  1.00  0.00    -0.226 NA
ATOM     48  O   PRO     6      -0.703  10.707  10.385  1.00  0.00    -0.269 OA
BRANCH  47  49
ATOM     49  CA  SER     7       1.952  12.283   8.492  1.00  0.00     0.219 C 
BRANCH  49  50
ATOM     50  C   SER     7       3.355  12.520   9.077  1.00  0.00     0.277 C 
ATOM     51  O   SER     7       3.610  12.119  10.208  1.00  0.00    -0.268 OA
ATOM     52  N   GLY     8       4.275  12.941   8.219  1.00  0.00    -0.226 NA
BRANCH  52  53
ATOM     53  CA  GLY     8       5.611  13.414   8.667  1.00  0.00     0.218 C 
BRANCH  53  54
ATOM     54  C   GLY     8       6.792  13.287   7.687  1.00  0.00     0.277 C 
ATOM     55  N   GLY     9       7.603  12.230   7.840  1.00  0.00    -0.226 NA
ATOM     56  O   GLY     8       6.936  14.103   6.791  1.00  0.00    -0.268 OA
BRANCH  55  57
ATOM     57  CA  GLY     9       8.796  12.002   6.999  1.00  0.00     0.218 C 
BRANCH  57  58
ATOM     58  C   GLY     9      10.018  12.795   7.522  1.00  0.00     0.277 C 
ATOM     59  O   GLY     9      10.359  12.668   8.691  1.00  0.00    -0.268 OA
ATOM     60  N   CYS    10      10.606  13.733   6.794  1.00  0.00    -0.228 NA
BRANCH  60  61
ATOM     61  CA  CYS    10      10.224  14.213   5.444  1.00  0.00     0.198 C 
BRANCH  61  62
ATOM     62  CB  CYS    10      10.076  15.738   5.386  1.00  0.00     0.103 C 
ATOM     63  SG  CYS    10      11.489  16.756   5.934  1.00  0.00    -0.080 SA
ENDBRANCH  61  62
BRANCH  61  64
ATOM     64  C   CYS    10      11.245  13.888   4.353  1.00  0.00     0.275 C 
ATOM     65  O   CYS    10      11.113  14.389   3.237  1.00  0.00    -0.268 OA
ATOM     66  N   GLY    11      12.358  13.337   4.809  1.00  0.00    -0.225 NA
BRANCH  66  67
ATOM     67  CA  GLY    11      13.108  12.350   4.019  1.00  0.00     0.226 C 
BRANCH  67  68
ATOM     68  C   GLY    11      14.382  13.088   3.576  1.00  0.00     0.211 C 
ATOM     69  O2  GLY    11      14.668  12.988   2.363  1.00  0.00    -0.646 OA
ATOM     70  O1  GLY    11      14.790  13.993   4.339  1.00  0.00    -0.646 OA
ENDBRANCH  67  68
ENDBRANCH  66  67
ENDBRANCH  61  64
ENDBRANCH  60  61
ENDBRANCH  57  58
ENDBRANCH  55  57
ENDBRANCH  53  54
ENDBRANCH  52  53
ENDBRANCH  49  50
BRANCH  49  71
ATOM     71  CB  SER     7       1.532  13.569   7.777  1.00  0.00     0.216 C 
ATOM     72  OG  SER     7       0.650  14.323   8.609  1.00  0.00    -0.218 OA
ENDBRANCH  49  71
ENDBRANCH  47  49
ENDBRANCH  42  46
ENDBRANCH   1  39
TORSDOF 33
ENDMDL
MODEL 6
REMARK VINA RESULT:      -4.3     10.868     17.036
REMARK WARNING: 32 MAX_TORS EXCEEDED!!!
REMARK  33 active torsions:
REMARK  status: ('A' for Active; 'I' for Inactive)
REMARK    1  A    between atoms: CA_2  and  C_8 
REMARK    2  A    between atoms: CA_2  and  CB_3 
REMARK    3  A    between atoms: CB_3  and  CG_4 
REMARK    4  A    between atoms: CG_4  and  CD_5 
REMARK       I    between atoms: C_8  and  N_10 
REMARK    5  A    between atoms: N_10  and  CA_11 
REMARK    6  A    between atoms: CA_11  and  C_12 
REMARK       I    between atoms: C_12  and  N_14 
REMARK    7  A    between atoms: N_14  and  CA_15 
REMARK    8  A    between atoms: CA_15  and  C_20 
REMARK    9  A    between atoms: CA_15  and  CB_16 
REMARK   10  A    between atoms: CB_16  and  CG_17 
REMARK       I    between atoms: C_20  and  N_22 
REMARK   11  A    between atoms: N_22  and  CA_23 
REMARK   12  A    between atoms: CA_23  and  CB_24 
REMARK   13  A    between atoms: CA_23  and  C_28 
REMARK   14  A    between atoms: CB_24  and  CG_25 
REMARK       I    between atoms: C_28  and  N_30 
REMARK   15  A    between atoms: N_30  and  CA_31 
REMARK   16  A    between atoms: CA_31  and  CB_32 
REMARK   17  A    between atoms: CA_31  and  C_39 
REMARK   18  A    between atoms: CB_32  and  CG_33 
REMARK   19  A    between atoms: CG_33  and  CD_34 
REMARK   20  A    between atoms: CD_34  and  NE_35 
REMARK       I    between atoms: C_39  and  N_41 
REMARK   21  A    between atoms: CA_42  and  C_46 
REMARK       I    between atoms: C_46  and  N_48 
REMARK   22  A    between atoms: N_48  and  CA_49 
REMARK   23  A    between atoms: CA_49  and  C_52 
REMARK   24  A    between atoms: CA_49  and  CB_50 
REMARK       I    between atoms: C_52  and  N_54 
REMARK   25  A    between atoms: N_54  and  CA_55 
REMARK   26  A    between atoms: CA_55  and  C_56 
REMARK       I    between atoms: C_56  and  N_58 
REMARK   27  A    between atoms: N_58  and  CA_59 
REMARK   28  A    between atoms: CA_59  and  C_60 
REMARK       I    between atoms: C_60  and  N_62 
REMARK   29  A    between atoms: N_62  and  CA_63 
REMARK   30  A    between atoms: CA_63  and  CB_64 
REMARK   31  A    between atoms: CA_63  and  C_66 
REMARK       I    between atoms: C_66  and  N_68 
REMARK   32  A    between atoms: N_68  and  CA_69 
REMARK   33  A    between atoms: CA_69  and  C_70 
ROOT
ATOM      1  CA  ARG     5      -9.765  -5.945   5.759  1.00  0.00     0.185 C 
ENDROOT
BRANCH   1   2
ATOM      2  N   ARG     5      -8.853  -7.006   6.225  1.00  0.00    -0.229 NA
ATOM      3  C   ASN     4      -8.268  -7.055   7.411  1.00  0.00     0.275 C 
ATOM      4  O   ASN     4      -8.202  -6.107   8.187  1.00  0.00    -0.268 OA
BRANCH   3   5
ATOM      5  CA  ASN     4      -7.384  -8.307   7.588  1.00  0.00     0.196 C 
BRANCH   5   6
ATOM      6  N   ASN     4      -7.973  -9.466   6.885  1.00  0.00    -0.228 NA
ATOM      7  C   LEU     3      -7.908 -10.711   7.350  1.00  0.00     0.274 C 
ATOM      8  O   LEU     3      -7.365 -11.043   8.408  1.00  0.00    -0.268 OA
BRANCH   7   9
ATOM      9  CA  LEU     3      -8.628 -11.755   6.498  1.00  0.00     0.186 C 
BRANCH   9  10
ATOM     10  N   LEU     3      -8.493 -13.087   7.128  1.00  0.00    -0.229 NA
ATOM     11  C   GLY     2      -8.154 -14.183   6.443  1.00  0.00     0.277 C 
ATOM     12  O   GLY     2      -7.778 -14.156   5.280  1.00  0.00    -0.268 OA
BRANCH  11  13
ATOM     13  CA  GLY     2      -8.096 -15.496   7.252  1.00  0.00     0.218 C 
BRANCH  13  14
ATOM     14  N   GLY     2      -6.782 -16.164   7.406  1.00  0.00    -0.226 NA
ATOM     15  C   GLU     1      -6.651 -17.495   7.353  1.00  0.00     0.289 C 
ATOM     16  O   GLU     1      -7.581 -18.206   7.011  1.00  0.00    -0.268 OA
BRANCH  15  17
ATOM     17  CA  GLU     1      -5.263 -18.121   7.653  1.00  0.00     0.381 C 
ATOM     18  N   GLU     1      -5.285 -19.121   8.735  1.00  0.00     0.626 N 
BRANCH  17  19
ATOM     19  CB  GLU     1      -4.704 -18.722   6.347  1.00  0.00     0.060 C 
BRANCH  19  20
ATOM     20  CG  GLU     1      -3.947 -20.058   6.395  1.00  0.00     0.100 C 
BRANCH  20  21
ATOM     21  CD  GLU     1      -2.427 -19.877   6.521  1.00  0.00     0.185 C 
ATOM     22  OE1 GLU     1      -1.712 -20.895   6.554  1.00  0.00    -0.647 OA
ATOM     23  OE2 GLU     1      -1.974 -18.723   6.617  1.00  0.00    -0.647 OA
ENDBRANCH  20  21
ENDBRANCH  19  20
ENDBRANCH  17  19
ENDBRANCH  15  17
ENDBRANCH  13  14
ENDBRANCH  11  13
ENDBRANCH   9  10
BRANCH   9  24
ATOM     24  CB  LEU     3     -10.106 -11.363   6.382  1.00  0.00     0.034 C 
BRANCH  24  25
ATOM     25  CG  LEU     3     -11.045 -12.212   7.257  1.00  0.00     0.002 C 
ATOM     26  CD1 LEU     3     -11.514 -11.384   8.452  1.00  0.00     0.000 C 
ATOM     27  CD2 LEU     3     -12.254 -12.707   6.456  1.00  0.00     0.000 C 
ENDBRANCH  24  25
ENDBRANCH   9  24
ENDBRANCH   7   9
ENDBRANCH   5   6
BRANCH   5  28
ATOM     28  CB  ASN     4      -5.949  -8.058   7.092  1.00  0.00     0.126 C 
BRANCH  28  29
ATOM     29  CG  ASN     4      -4.875  -8.260   8.179  1.00  0.00     0.276 C 
ATOM     30  ND2 ASN     4      -4.274  -7.182   8.608  1.00  0.00    -0.107 N 
ATOM     31  OD1 ASN     4      -4.616  -9.335   8.685  1.00  0.00    -0.269 OA
ENDBRANCH  28  29
ENDBRANCH   5  28
ENDBRANCH   3   5
ENDBRANCH   1   2
BRANCH   1  32
ATOM     32  CB  ARG     5      -9.362  -5.466   4.360  1.00  0.00     0.036 C 
BRANCH  32  33
ATOM     33  CG  ARG     5      -7.853  -5.313   4.168  1.00  0.00     0.029 C 
BRANCH  33  34
ATOM     34  CD  ARG     5      -7.470  -3.843   4.299  1.00  0.00     0.145 C 
BRANCH  34  35
ATOM     35  NE  ARG     5      -8.461  -2.952   3.647  1.00  0.00    -0.083 NA
ATOM     36  CZ  ARG     5      -8.161  -1.805   3.019  1.00  0.00     0.782 C 
ATOM     37  NH2 ARG     5      -9.065  -1.181   2.245  1.00  0.00     0.063 N 
ATOM     38  NH1 ARG     5      -6.932  -1.311   3.034  1.00  0.00     0.063 N 
ENDBRANCH  34  35
ENDBRANCH  33  34
ENDBRANCH  32  33
ENDBRANCH   1  32
BRANCH   1  39
ATOM     39  C   ARG     5     -11.207  -6.484   5.724  1.00  0.00     0.256 C 
ATOM     40  O   ARG     5     -11.535  -7.301   4.859  1.00  0.00    -0.270 OA
ATOM     41  N   PRO     6     -12.023  -6.109   6.714  1.00  0.00    -0.312 N 
ATOM     42  CA  PRO     6     -13.445  -6.507   6.815  1.00  0.00     0.165 C 
ATOM     43  CD  PRO     6     -11.612  -5.385   7.937  1.00  0.00     0.105 C 
ATOM     44  CB  PRO     6     -13.975  -5.760   8.040  1.00  0.00     0.034 C 
ATOM     45  CG  PRO     6     -12.746  -5.649   8.930  1.00  0.00     0.027 C 
BRANCH  42  46
ATOM     46  C   PRO     6     -14.229  -6.113   5.551  1.00  0.00     0.272 C 
ATOM     47  N   SER     7     -14.829  -7.056   4.838  1.00  0.00    -0.226 NA
ATOM     48  O   PRO     6     -14.206  -4.946   5.149  1.00  0.00    -0.269 OA
BRANCH  47  49
ATOM     49  CA  SER     7     -14.833  -8.512   5.115  1.00  0.00     0.219 C 
BRANCH  49  50
ATOM     50  C   SER     7     -14.684  -9.344   3.829  1.00  0.00     0.277 C 
ATOM     51  O   SER     7     -15.535  -9.249   2.951  1.00  0.00    -0.268 OA
ATOM     52  N   GLY     8     -13.510  -9.936   3.658  1.00  0.00    -0.226 NA
BRANCH  52  53
ATOM     53  CA  GLY     8     -13.282 -10.936   2.581  1.00  0.00     0.218 C 
BRANCH  53  54
ATOM     54  C   GLY     8     -13.513 -12.422   2.910  1.00  0.00     0.277 C 
ATOM     55  N   GLY     9     -12.629 -13.302   2.419  1.00  0.00    -0.226 NA
ATOM     56  O   GLY     8     -14.444 -12.754   3.625  1.00  0.00    -0.268 OA
BRANCH  55  57
ATOM     57  CA  GLY     9     -12.747 -14.761   2.620  1.00  0.00     0.218 C 
BRANCH  57  58
ATOM     58  C   GLY     9     -11.615 -15.301   3.525  1.00  0.00     0.277 C 
ATOM     59  O   GLY     9     -10.576 -14.662   3.632  1.00  0.00    -0.268 OA
ATOM     60  N   CYS    10     -11.664 -16.513   4.059  1.00  0.00    -0.228 NA
BRANCH  60  61
ATOM     61  CA  CYS    10     -12.715 -17.545   3.882  1.00  0.00     0.198 C 
BRANCH  61  62
ATOM     62  CB  CYS    10     -12.129 -18.948   3.685  1.00  0.00     0.103 C 
ATOM     63  SG  CYS    10     -12.001 -19.589   1.980  1.00  0.00    -0.080 SA
ENDBRANCH  61  62
BRANCH  61  64
ATOM     64  C   CYS    10     -13.656 -17.689   5.081  1.00  0.00     0.275 C 
ATOM     65  O   CYS    10     -14.758 -18.209   4.919  1.00  0.00    -0.268 OA
ATOM     66  N   GLY    11     -13.061 -17.521   6.251  1.00  0.00    -0.225 NA
BRANCH  66  67
ATOM     67  CA  GLY    11     -13.769 -16.928   7.394  1.00  0.00     0.226 C 
BRANCH  67  68
ATOM     68  C   GLY    11     -12.661 -16.322   8.270  1.00  0.00     0.211 C 
ATOM     69  O2  GLY    11     -12.739 -16.577   9.491  1.00  0.00    -0.646 OA
ATOM     70  O1  GLY    11     -11.618 -15.967   7.674  1.00  0.00    -0.646 OA
ENDBRANCH  67  68
ENDBRANCH  66  67
ENDBRANCH  61  64
ENDBRANCH  60  61
ENDBRANCH  57  58
ENDBRANCH  55  57
ENDBRANCH  53  54
ENDBRANCH  52  53
ENDBRANCH  49  50
BRANCH  49  71
ATOM     71  CB  SER     7     -16.130  -8.955   5.796  1.00  0.00     0.216 C 
ATOM     72  OG  SER     7     -15.885  -9.230   7.176  1.00  0.00    -0.218 OA
ENDBRANCH  49  71
ENDBRANCH  47  49
ENDBRANCH  42  46
ENDBRANCH   1  39
TORSDOF 33
ENDMDL
MODEL 7
REMARK VINA RESULT:      -4.2      4.086     15.457
REMARK WARNING: 32 MAX_TORS EXCEEDED!!!
REMARK  33 active torsions:
REMARK  status: ('A' for Active; 'I' for Inactive)
REMARK    1  A    between atoms: CA_2  and  C_8 
REMARK    2  A    between atoms: CA_2  and  CB_3 
REMARK    3  A    between atoms: CB_3  and  CG_4 
REMARK    4  A    between atoms: CG_4  and  CD_5 
REMARK       I    between atoms: C_8  and  N_10 
REMARK    5  A    between atoms: N_10  and  CA_11 
REMARK    6  A    between atoms: CA_11  and  C_12 
REMARK       I    between atoms: C_12  and  N_14 
REMARK    7  A    between atoms: N_14  and  CA_15 
REMARK    8  A    between atoms: CA_15  and  C_20 
REMARK    9  A    between atoms: CA_15  and  CB_16 
REMARK   10  A    between atoms: CB_16  and  CG_17 
REMARK       I    between atoms: C_20  and  N_22 
REMARK   11  A    between atoms: N_22  and  CA_23 
REMARK   12  A    between atoms: CA_23  and  CB_24 
REMARK   13  A    between atoms: CA_23  and  C_28 
REMARK   14  A    between atoms: CB_24  and  CG_25 
REMARK       I    between atoms: C_28  and  N_30 
REMARK   15  A    between atoms: N_30  and  CA_31 
REMARK   16  A    between atoms: CA_31  and  CB_32 
REMARK   17  A    between atoms: CA_31  and  C_39 
REMARK   18  A    between atoms: CB_32  and  CG_33 
REMARK   19  A    between atoms: CG_33  and  CD_34 
REMARK   20  A    between atoms: CD_34  and  NE_35 
REMARK       I    between atoms: C_39  and  N_41 
REMARK   21  A    between atoms: CA_42  and  C_46 
REMARK       I    between atoms: C_46  and  N_48 
REMARK   22  A    between atoms: N_48  and  CA_49 
REMARK   23  A    between atoms: CA_49  and  C_52 
REMARK   24  A    between atoms: CA_49  and  CB_50 
REMARK       I    between atoms: C_52  and  N_54 
REMARK   25  A    between atoms: N_54  and  CA_55 
REMARK   26  A    between atoms: CA_55  and  C_56 
REMARK       I    between atoms: C_56  and  N_58 
REMARK   27  A    between atoms: N_58  and  CA_59 
REMARK   28  A    between atoms: CA_59  and  C_60 
REMARK       I    between atoms: C_60  and  N_62 
REMARK   29  A    between atoms: N_62  and  CA_63 
REMARK   30  A    between atoms: CA_63  and  CB_64 
REMARK   31  A    between atoms: CA_63  and  C_66 
REMARK       I    between atoms: C_66  and  N_68 
REMARK   32  A    between atoms: N_68  and  CA_69 
REMARK   33  A    between atoms: CA_69  and  C_70 
ROOT
ATOM      1  CA  ARG     5       5.341 -18.590   7.612  1.00  0.00     0.185 C 
ENDROOT
BRANCH   1   2
ATOM      2  N   ARG     5       3.967 -19.125   7.604  1.00  0.00    -0.229 NA
ATOM      3  C   ASN     4       3.477 -20.007   8.461  1.00  0.00     0.275 C 
ATOM      4  O   ASN     4       4.162 -20.686   9.219  1.00  0.00    -0.268 OA
BRANCH   3   5
ATOM      5  CA  ASN     4       1.998 -20.349   8.183  1.00  0.00     0.196 C 
BRANCH   5   6
ATOM      6  N   ASN     4       1.781 -21.810   8.235  1.00  0.00    -0.228 NA
ATOM      7  C   LEU     3       1.091 -22.478   7.314  1.00  0.00     0.274 C 
ATOM      8  O   LEU     3       0.565 -21.971   6.319  1.00  0.00    -0.268 OA
BRANCH   7   9
ATOM      9  CA  LEU     3       1.030 -23.990   7.525  1.00  0.00     0.186 C 
BRANCH   9  10
ATOM     10  N   LEU     3       0.541 -24.644   6.291  1.00  0.00    -0.229 NA
ATOM     11  C   GLY     2      -0.730 -25.021   6.125  1.00  0.00     0.277 C 
ATOM     12  O   GLY     2      -1.624 -24.724   6.904  1.00  0.00    -0.268 OA
BRANCH  11  13
ATOM     13  CA  GLY     2      -1.059 -25.722   4.790  1.00  0.00     0.218 C 
BRANCH  13  14
ATOM     14  N   GLY     2      -1.694 -24.920   3.717  1.00  0.00    -0.226 NA
ATOM     15  C   GLU     1      -3.002 -25.005   3.447  1.00  0.00     0.289 C 
ATOM     16  O   GLU     1      -3.758 -25.621   4.179  1.00  0.00    -0.268 OA
BRANCH  15  17
ATOM     17  CA  GLU     1      -3.563 -24.229   2.226  1.00  0.00     0.381 C 
ATOM     18  N   GLU     1      -4.898 -24.684   1.798  1.00  0.00     0.626 N 
BRANCH  17  19
ATOM     19  CB  GLU     1      -3.566 -22.723   2.560  1.00  0.00     0.060 C 
BRANCH  19  20
ATOM     20  CG  GLU     1      -4.819 -22.092   3.187  1.00  0.00     0.100 C 
BRANCH  20  21
ATOM     21  CD  GLU     1      -4.584 -21.604   4.624  1.00  0.00     0.185 C 
ATOM     22  OE1 GLU     1      -5.368 -20.762   5.098  1.00  0.00    -0.647 OA
ATOM     23  OE2 GLU     1      -3.602 -22.045   5.246  1.00  0.00    -0.647 OA
ENDBRANCH  20  21
ENDBRANCH  19  20
ENDBRANCH  17  19
ENDBRANCH  15  17
ENDBRANCH  13  14
ENDBRANCH  11  13
ENDBRANCH   9  10
BRANCH   9  24
ATOM     24  CB  LEU     3       2.434 -24.496   7.880  1.00  0.00     0.034 C 
BRANCH  24  25
ATOM     25  CG  LEU     3       2.533 -26.027   7.994  1.00  0.00     0.002 C 
ATOM     26  CD1 LEU     3       3.991 -26.429   8.205  1.00  0.00     0.000 C 
ATOM     27  CD2 LEU     3       1.671 -26.555   9.146  1.00  0.00     0.000 C 
ENDBRANCH  24  25
ENDBRANCH   9  24
ENDBRANCH   7   9
ENDBRANCH   5   6
BRANCH   5  28
ATOM     28  CB  ASN     4       1.060 -19.637   9.172  1.00  0.00     0.126 C 
BRANCH  28  29
ATOM     29  CG  ASN     4      -0.095 -18.876   8.492  1.00  0.00     0.276 C 
ATOM     30  ND2 ASN     4      -0.101 -17.578   8.639  1.00  0.00    -0.107 N 
ATOM     31  OD1 ASN     4      -0.937 -19.407   7.793  1.00  0.00    -0.269 OA
ENDBRANCH  28  29
ENDBRANCH   5  28
ENDBRANCH   3   5
ENDBRANCH   1   2
BRANCH   1  32
ATOM     32  CB  ARG     5       5.918 -18.613   9.032  1.00  0.00     0.036 C 
BRANCH  32  33
ATOM     33  CG  ARG     5       6.311 -17.234   9.563  1.00  0.00     0.029 C 
BRANCH  33  34
ATOM     34  CD  ARG     5       5.912 -16.167   8.549  1.00  0.00     0.145 C 
BRANCH  34  35
ATOM     35  NE  ARG     5       4.474 -15.820   8.646  1.00  0.00    -0.083 NA
ATOM     36  CZ  ARG     5       3.727 -15.359   7.631  1.00  0.00     0.782 C 
ATOM     37  NH2 ARG     5       2.389 -15.300   7.725  1.00  0.00     0.063 N 
ATOM     38  NH1 ARG     5       4.266 -15.065   6.457  1.00  0.00     0.063 N 
ENDBRANCH  34  35
ENDBRANCH  33  34
ENDBRANCH  32  33
ENDBRANCH   1  32
BRANCH   1  39
ATOM     39  C   ARG     5       6.230 -19.436   6.682  1.00  0.00     0.256 C 
ATOM     40  O   ARG     5       6.375 -20.643   6.903  1.00  0.00    -0.270 OA
ATOM     41  N   PRO     6       6.730 -18.833   5.599  1.00  0.00    -0.312 N 
ATOM     42  CA  PRO     6       7.627 -19.488   4.621  1.00  0.00     0.165 C 
ATOM     43  CD  PRO     6       6.350 -17.487   5.115  1.00  0.00     0.105 C 
ATOM     44  CB  PRO     6       8.006 -18.382   3.635  1.00  0.00     0.034 C 
ATOM     45  CG  PRO     6       6.782 -17.479   3.648  1.00  0.00     0.027 C 
BRANCH  42  46
ATOM     46  C   PRO     6       8.877 -20.065   5.306  1.00  0.00     0.272 C 
ATOM     47  N   SER     7       9.829 -19.241   5.725  1.00  0.00    -0.226 NA
ATOM     48  O   PRO     6       9.040 -21.287   5.367  1.00  0.00    -0.269 OA
BRANCH  47  49
ATOM     49  CA  SER     7       9.841 -17.764   5.601  1.00  0.00     0.219 C 
BRANCH  49  50
ATOM     50  C   SER     7      10.953 -17.275   4.656  1.00  0.00     0.277 C 
ATOM     51  O   SER     7      11.981 -17.934   4.546  1.00  0.00    -0.268 OA
ATOM     52  N   GLY     8      10.622 -16.284   3.839  1.00  0.00    -0.226 NA
BRANCH  52  53
ATOM     53  CA  GLY     8      11.634 -15.566   3.021  1.00  0.00     0.218 C 
BRANCH  53  54
ATOM     54  C   GLY     8      11.911 -14.086   3.343  1.00  0.00     0.277 C 
ATOM     55  N   GLY     9      13.022 -13.808   4.040  1.00  0.00    -0.226 NA
ATOM     56  O   GLY     8      11.158 -13.218   2.932  1.00  0.00    -0.268 OA
BRANCH  55  57
ATOM     57  CA  GLY     9      13.393 -12.440   4.454  1.00  0.00     0.218 C 
BRANCH  57  58
ATOM     58  C   GLY     9      14.929 -12.251   4.473  1.00  0.00     0.277 C 
ATOM     59  O   GLY     9      15.615 -12.834   3.643  1.00  0.00    -0.268 OA
ATOM     60  N   CYS    10      15.542 -11.614   5.460  1.00  0.00    -0.228 NA
BRANCH  60  61
ATOM     61  CA  CYS    10      14.938 -11.026   6.681  1.00  0.00     0.198 C 
BRANCH  61  62
ATOM     62  CB  CYS    10      15.860 -11.137   7.901  1.00  0.00     0.103 C 
ATOM     63  SG  CYS    10      15.354 -12.248   9.258  1.00  0.00    -0.080 SA
ENDBRANCH  61  62
BRANCH  61  64
ATOM     64  C   CYS    10      14.632  -9.531   6.569  1.00  0.00     0.275 C 
ATOM     65  O   CYS    10      13.785  -9.034   7.309  1.00  0.00    -0.268 OA
ATOM     66  N   GLY    11      15.541  -8.848   5.892  1.00  0.00    -0.225 NA
BRANCH  66  67
ATOM     67  CA  GLY    11      15.176  -7.680   5.078  1.00  0.00     0.226 C 
BRANCH  67  68
ATOM     68  C   GLY    11      16.024  -7.809   3.803  1.00  0.00     0.211 C 
ATOM     69  O2  GLY    11      16.202  -6.749   3.165  1.00  0.00    -0.646 OA
ATOM     70  O1  GLY    11      16.748  -8.828   3.721  1.00  0.00    -0.646 OA
ENDBRANCH  67  68
ENDBRANCH  66  67
ENDBRANCH  61  64
ENDBRANCH  60  61
ENDBRANCH  57  58
ENDBRANCH  55  57
ENDBRANCH  53  54
ENDBRANCH  52  53
ENDBRANCH  49  50
BRANCH  49  71
ATOM     71  CB  SER     7      10.062 -17.084   6.954  1.00  0.00     0.216 C 
ATOM     72  OG  SER     7       9.219 -17.681   7.941  1.00  0.00    -0.218 OA
ENDBRANCH  49  71
ENDBRANCH  47  49
ENDBRANCH  42  46
ENDBRANCH   1  39
TORSDOF 33
ENDMDL
MODEL 8
REMARK VINA RESULT:      -4.2      3.780      9.469
REMARK WARNING: 32 MAX_TORS EXCEEDED!!!
REMARK  33 active torsions:
REMARK  status: ('A' for Active; 'I' for Inactive)
REMARK    1  A    between atoms: CA_2  and  C_8 
REMARK    2  A    between atoms: CA_2  and  CB_3 
REMARK    3  A    between atoms: CB_3  and  CG_4 
REMARK    4  A    between atoms: CG_4  and  CD_5 
REMARK       I    between atoms: C_8  and  N_10 
REMARK    5  A    between atoms: N_10  and  CA_11 
REMARK    6  A    between atoms: CA_11  and  C_12 
REMARK       I    between atoms: C_12  and  N_14 
REMARK    7  A    between atoms: N_14  and  CA_15 
REMARK    8  A    between atoms: CA_15  and  C_20 
REMARK    9  A    between atoms: CA_15  and  CB_16 
REMARK   10  A    between atoms: CB_16  and  CG_17 
REMARK       I    between atoms: C_20  and  N_22 
REMARK   11  A    between atoms: N_22  and  CA_23 
REMARK   12  A    between atoms: CA_23  and  CB_24 
REMARK   13  A    between atoms: CA_23  and  C_28 
REMARK   14  A    between atoms: CB_24  and  CG_25 
REMARK       I    between atoms: C_28  and  N_30 
REMARK   15  A    between atoms: N_30  and  CA_31 
REMARK   16  A    between atoms: CA_31  and  CB_32 
REMARK   17  A    between atoms: CA_31  and  C_39 
REMARK   18  A    between atoms: CB_32  and  CG_33 
REMARK   19  A    between atoms: CG_33  and  CD_34 
REMARK   20  A    between atoms: CD_34  and  NE_35 
REMARK       I    between atoms: C_39  and  N_41 
REMARK   21  A    between atoms: CA_42  and  C_46 
REMARK       I    between atoms: C_46  and  N_48 
REMARK   22  A    between atoms: N_48  and  CA_49 
REMARK   23  A    between atoms: CA_49  and  C_52 
REMARK   24  A    between atoms: CA_49  and  CB_50 
REMARK       I    between atoms: C_52  and  N_54 
REMARK   25  A    between atoms: N_54  and  CA_55 
REMARK   26  A    between atoms: CA_55  and  C_56 
REMARK       I    between atoms: C_56  and  N_58 
REMARK   27  A    between atoms: N_58  and  CA_59 
REMARK   28  A    between atoms: CA_59  and  C_60 
REMARK       I    between atoms: C_60  and  N_62 
REMARK   29  A    between atoms: N_62  and  CA_63 
REMARK   30  A    between atoms: CA_63  and  CB_64 
REMARK   31  A    between atoms: CA_63  and  C_66 
REMARK       I    between atoms: C_66  and  N_68 
REMARK   32  A    between atoms: N_68  and  CA_69 
REMARK   33  A    between atoms: CA_69  and  C_70 
ROOT
ATOM      1  CA  ARG     5      10.299 -18.386   6.257  1.00  0.00     0.185 C 
ENDROOT
BRANCH   1   2
ATOM      2  N   ARG     5      10.557 -19.373   5.192  1.00  0.00    -0.229 NA
ATOM      3  C   ASN     4      10.650 -20.683   5.360  1.00  0.00     0.275 C 
ATOM      4  O   ASN     4      10.787 -21.231   6.449  1.00  0.00    -0.268 OA
BRANCH   3   5
ATOM      5  CA  ASN     4      10.912 -21.435   4.038  1.00  0.00     0.196 C 
BRANCH   5   6
ATOM      6  N   ASN     4      12.245 -21.092   3.498  1.00  0.00    -0.228 NA
ATOM      7  C   LEU     3      12.428 -20.578   2.284  1.00  0.00     0.274 C 
ATOM      8  O   LEU     3      11.527 -20.321   1.481  1.00  0.00    -0.268 OA
BRANCH   7   9
ATOM      9  CA  LEU     3      13.879 -20.244   1.939  1.00  0.00     0.186 C 
BRANCH   9  10
ATOM     10  N   LEU     3      14.011 -18.788   1.708  1.00  0.00    -0.229 NA
ATOM     11  C   GLY     2      13.839 -17.882   2.675  1.00  0.00     0.277 C 
ATOM     12  O   GLY     2      13.712 -18.177   3.854  1.00  0.00    -0.268 OA
BRANCH  11  13
ATOM     13  CA  GLY     2      13.977 -16.405   2.251  1.00  0.00     0.218 C 
BRANCH  13  14
ATOM     14  N   GLY     2      14.652 -15.471   3.184  1.00  0.00    -0.226 NA
ATOM     15  C   GLU     1      15.299 -14.382   2.753  1.00  0.00     0.289 C 
ATOM     16  O   GLU     1      15.221 -14.021   1.591  1.00  0.00    -0.268 OA
BRANCH  15  17
ATOM     17  CA  GLU     1      16.087 -13.527   3.781  1.00  0.00     0.381 C 
ATOM     18  N   GLU     1      15.838 -12.079   3.662  1.00  0.00     0.626 N 
BRANCH  17  19
ATOM     19  CB  GLU     1      15.757 -14.036   5.199  1.00  0.00     0.060 C 
BRANCH  19  20
ATOM     20  CG  GLU     1      15.037 -13.104   6.187  1.00  0.00     0.100 C 
BRANCH  20  21
ATOM     21  CD  GLU     1      13.509 -13.150   6.042  1.00  0.00     0.185 C 
ATOM     22  OE1 GLU     1      12.986 -14.198   5.623  1.00  0.00    -0.647 OA
ATOM     23  OE2 GLU     1      12.857 -12.128   6.321  1.00  0.00    -0.647 OA
ENDBRANCH  20  21
ENDBRANCH  19  20
ENDBRANCH  17  19
ENDBRANCH  15  17
ENDBRANCH  13  14
ENDBRANCH  11  13
ENDBRANCH   9  10
BRANCH   9  24
ATOM     24  CB  LEU     3      14.777 -20.688   3.100  1.00  0.00     0.034 C 
BRANCH  24  25
ATOM     25  CG  LEU     3      15.571 -21.975   2.814  1.00  0.00     0.002 C 
ATOM     26  CD1 LEU     3      17.036 -21.624   2.560  1.00  0.00     0.000 C 
ATOM     27  CD2 LEU     3      15.464 -22.963   3.981  1.00  0.00     0.000 C 
ENDBRANCH  24  25
ENDBRANCH   9  24
ENDBRANCH   7   9
ENDBRANCH   5   6
BRANCH   5  28
ATOM     28  CB  ASN     4      10.790 -22.957   4.223  1.00  0.00     0.126 C 
BRANCH  28  29
ATOM     29  CG  ASN     4      10.088 -23.668   3.049  1.00  0.00     0.276 C 
ATOM     30  ND2 ASN     4       9.805 -24.932   3.222  1.00  0.00    -0.107 N 
ATOM     31  OD1 ASN     4       9.740 -23.108   2.027  1.00  0.00    -0.269 OA
ENDBRANCH  28  29
ENDBRANCH   5  28
ENDBRANCH   3   5
ENDBRANCH   1   2
BRANCH   1  32
ATOM     32  CB  ARG     5      11.265 -17.203   6.139  1.00  0.00     0.036 C 
BRANCH  32  33
ATOM     33  CG  ARG     5      11.574 -16.520   7.472  1.00  0.00     0.029 C 
BRANCH  33  34
ATOM     34  CD  ARG     5      11.776 -17.580   8.550  1.00  0.00     0.145 C 
BRANCH  34  35
ATOM     35  NE  ARG     5      13.204 -17.732   8.919  1.00  0.00    -0.083 NA
ATOM     36  CZ  ARG     5      14.036 -18.645   8.396  1.00  0.00     0.782 C 
ATOM     37  NH2 ARG     5      15.363 -18.567   8.591  1.00  0.00     0.063 N 
ATOM     38  NH1 ARG     5      13.599 -19.583   7.567  1.00  0.00     0.063 N 
ENDBRANCH  34  35
ENDBRANCH  33  34
ENDBRANCH  32  33
ENDBRANCH   1  32
BRANCH   1  39
ATOM     39  C   ARG     5       8.848 -17.880   6.150  1.00  0.00     0.256 C 
ATOM     40  O   ARG     5       8.248 -17.520   7.168  1.00  0.00    -0.270 OA
ATOM     41  N   PRO     6       8.333 -17.757   4.924  1.00  0.00    -0.312 N 
ATOM     42  CA  PRO     6       6.947 -17.319   4.644  1.00  0.00     0.165 C 
ATOM     43  CD  PRO     6       9.090 -17.878   3.659  1.00  0.00     0.105 C 
ATOM     44  CB  PRO     6       6.798 -17.434   3.126  1.00  0.00     0.034 C 
ATOM     45  CG  PRO     6       8.211 -17.174   2.624  1.00  0.00     0.027 C 
BRANCH  42  46
ATOM     46  C   PRO     6       5.921 -18.209   5.365  1.00  0.00     0.272 C 
ATOM     47  N   SER     7       4.899 -17.645   5.995  1.00  0.00    -0.226 NA
ATOM     48  O   PRO     6       6.108 -19.427   5.445  1.00  0.00    -0.269 OA
BRANCH  47  49
ATOM     49  CA  SER     7       4.615 -16.194   6.104  1.00  0.00     0.219 C 
BRANCH  49  50
ATOM     50  C   SER     7       3.836 -15.855   7.387  1.00  0.00     0.277 C 
ATOM     51  O   SER     7       4.201 -14.911   8.079  1.00  0.00    -0.268 OA
ATOM     52  N   GLY     8       2.670 -16.469   7.534  1.00  0.00    -0.226 NA
BRANCH  52  53
ATOM     53  CA  GLY     8       1.904 -16.410   8.807  1.00  0.00     0.218 C 
BRANCH  53  54
ATOM     54  C   GLY     8       0.425 -16.835   8.785  1.00  0.00     0.277 C 
ATOM     55  N   GLY     9       0.165 -18.151   8.790  1.00  0.00    -0.226 NA
ATOM     56  O   GLY     8      -0.456 -15.991   8.806  1.00  0.00    -0.268 OA
BRANCH  55  57
ATOM     57  CA  GLY     9      -1.203 -18.703   8.731  1.00  0.00     0.218 C 
BRANCH  57  58
ATOM     58  C   GLY     9      -1.490 -19.361   7.361  1.00  0.00     0.277 C 
ATOM     59  O   GLY     9      -2.156 -18.754   6.532  1.00  0.00    -0.268 OA
ATOM     60  N   CYS    10      -1.179 -20.626   7.114  1.00  0.00    -0.228 NA
BRANCH  60  61
ATOM     61  CA  CYS    10      -0.576 -21.614   8.041  1.00  0.00     0.198 C 
BRANCH  61  62
ATOM     62  CB  CYS    10      -1.327 -22.950   8.041  1.00  0.00     0.103 C 
ATOM     63  SG  CYS    10      -2.556 -23.241   6.723  1.00  0.00    -0.080 SA
ENDBRANCH  61  62
BRANCH  61  64
ATOM     64  C   CYS    10       0.868 -21.988   7.701  1.00  0.00     0.275 C 
ATOM     65  O   CYS    10       1.094 -22.662   6.698  1.00  0.00    -0.268 OA
ATOM     66  N   GLY    11       1.773 -21.280   8.357  1.00  0.00    -0.225 NA
BRANCH  66  67
ATOM     67  CA  GLY    11       3.066 -21.859   8.750  1.00  0.00     0.226 C 
BRANCH  67  68
ATOM     68  C   GLY    11       4.052 -20.681   8.706  1.00  0.00     0.211 C 
ATOM     69  O2  GLY    11       5.140 -20.911   8.135  1.00  0.00    -0.646 OA
ATOM     70  O1  GLY    11       3.564 -19.543   8.892  1.00  0.00    -0.646 OA
ENDBRANCH  67  68
ENDBRANCH  66  67
ENDBRANCH  61  64
ENDBRANCH  60  61
ENDBRANCH  57  58
ENDBRANCH  55  57
ENDBRANCH  53  54
ENDBRANCH  52  53
ENDBRANCH  49  50
BRANCH  49  71
ATOM     71  CB  SER     7       3.785 -15.690   4.921  1.00  0.00     0.216 C 
ATOM     72  OG  SER     7       3.440 -14.319   5.118  1.00  0.00    -0.218 OA
ENDBRANCH  49  71
ENDBRANCH  47  49
ENDBRANCH  42  46
ENDBRANCH   1  39
TORSDOF 33
ENDMDL
MODEL 9
REMARK VINA RESULT:      -4.2     11.174     19.168
REMARK WARNING: 32 MAX_TORS EXCEEDED!!!
REMARK  33 active torsions:
REMARK  status: ('A' for Active; 'I' for Inactive)
REMARK    1  A    between atoms: CA_2  and  C_8 
REMARK    2  A    between atoms: CA_2  and  CB_3 
REMARK    3  A    between atoms: CB_3  and  CG_4 
REMARK    4  A    between atoms: CG_4  and  CD_5 
REMARK       I    between atoms: C_8  and  N_10 
REMARK    5  A    between atoms: N_10  and  CA_11 
REMARK    6  A    between atoms: CA_11  and  C_12 
REMARK       I    between atoms: C_12  and  N_14 
REMARK    7  A    between atoms: N_14  and  CA_15 
REMARK    8  A    between atoms: CA_15  and  C_20 
REMARK    9  A    between atoms: CA_15  and  CB_16 
REMARK   10  A    between atoms: CB_16  and  CG_17 
REMARK       I    between atoms: C_20  and  N_22 
REMARK   11  A    between atoms: N_22  and  CA_23 
REMARK   12  A    between atoms: CA_23  and  CB_24 
REMARK   13  A    between atoms: CA_23  and  C_28 
REMARK   14  A    between atoms: CB_24  and  CG_25 
REMARK       I    between atoms: C_28  and  N_30 
REMARK   15  A    between atoms: N_30  and  CA_31 
REMARK   16  A    between atoms: CA_31  and  CB_32 
REMARK   17  A    between atoms: CA_31  and  C_39 
REMARK   18  A    between atoms: CB_32  and  CG_33 
REMARK   19  A    between atoms: CG_33  and  CD_34 
REMARK   20  A    between atoms: CD_34  and  NE_35 
REMARK       I    between atoms: C_39  and  N_41 
REMARK   21  A    between atoms: CA_42  and  C_46 
REMARK       I    between atoms: C_46  and  N_48 
REMARK   22  A    between atoms: N_48  and  CA_49 
REMARK   23  A    between atoms: CA_49  and  C_52 
REMARK   24  A    between atoms: CA_49  and  CB_50 
REMARK       I    between atoms: C_52  and  N_54 
REMARK   25  A    between atoms: N_54  and  CA_55 
REMARK   26  A    between atoms: CA_55  and  C_56 
REMARK       I    between atoms: C_56  and  N_58 
REMARK   27  A    between atoms: N_58  and  CA_59 
REMARK   28  A    between atoms: CA_59  and  C_60 
REMARK       I    between atoms: C_60  and  N_62 
REMARK   29  A    between atoms: N_62  and  CA_63 
REMARK   30  A    between atoms: CA_63  and  CB_64 
REMARK   31  A    between atoms: CA_63  and  C_66 
REMARK       I    between atoms: C_66  and  N_68 
REMARK   32  A    between atoms: N_68  and  CA_69 
REMARK   33  A    between atoms: CA_69  and  C_70 
ROOT
ATOM      1  CA  ARG     5     -12.073  -5.699   5.438  1.00  0.00     0.185 C 
ENDROOT
BRANCH   1   2
ATOM      2  N   ARG     5     -12.545  -6.911   4.743  1.00  0.00    -0.229 NA
ATOM      3  C   ASN     4     -12.763  -7.019   3.442  1.00  0.00     0.275 C 
ATOM      4  O   ASN     4     -12.845  -6.066   2.675  1.00  0.00    -0.268 OA
BRANCH   3   5
ATOM      5  CA  ASN     4     -13.240  -8.429   3.033  1.00  0.00     0.196 C 
BRANCH   5   6
ATOM      6  N   ASN     4     -13.168  -9.357   4.181  1.00  0.00    -0.228 NA
ATOM      7  C   LEU     3     -12.974 -10.667   4.047  1.00  0.00     0.274 C 
ATOM      8  O   LEU     3     -12.824 -11.254   2.972  1.00  0.00    -0.268 OA
BRANCH   7   9
ATOM      9  CA  LEU     3     -12.877 -11.441   5.362  1.00  0.00     0.186 C 
BRANCH   9  10
ATOM     10  N   LEU     3     -12.163 -12.717   5.134  1.00  0.00    -0.229 NA
ATOM     11  C   GLY     2     -12.217 -13.741   5.990  1.00  0.00     0.277 C 
ATOM     12  O   GLY     2     -12.976 -13.775   6.947  1.00  0.00    -0.268 OA
BRANCH  11  13
ATOM     13  CA  GLY     2     -11.380 -14.982   5.614  1.00  0.00     0.218 C 
BRANCH  13  14
ATOM     14  N   GLY     2     -11.369 -16.129   6.555  1.00  0.00    -0.226 NA
ATOM     15  C   GLU     1     -12.283 -17.103   6.497  1.00  0.00     0.289 C 
ATOM     16  O   GLU     1     -13.066 -17.178   5.564  1.00  0.00    -0.268 OA
BRANCH  15  17
ATOM     17  CA  GLU     1     -12.278 -18.198   7.597  1.00  0.00     0.381 C 
ATOM     18  N   GLU     1     -13.472 -18.176   8.460  1.00  0.00     0.626 N 
BRANCH  17  19
ATOM     19  CB  GLU     1     -12.101 -19.573   6.920  1.00  0.00     0.060 C 
BRANCH  19  20
ATOM     20  CG  GLU     1     -10.729 -20.263   6.962  1.00  0.00     0.100 C 
BRANCH  20  21
ATOM     21  CD  GLU     1      -9.829 -19.871   5.781  1.00  0.00     0.185 C 
ATOM     22  OE1 GLU     1      -8.612 -19.720   5.990  1.00  0.00    -0.647 OA
ATOM     23  OE2 GLU     1     -10.357 -19.689   4.670  1.00  0.00    -0.647 OA
ENDBRANCH  20  21
ENDBRANCH  19  20
ENDBRANCH  17  19
ENDBRANCH  15  17
ENDBRANCH  13  14
ENDBRANCH  11  13
ENDBRANCH   9  10
BRANCH   9  24
ATOM     24  CB  LEU     3     -12.128 -10.581   6.387  1.00  0.00     0.034 C 
BRANCH  24  25
ATOM     25  CG  LEU     3     -12.932 -10.299   7.668  1.00  0.00     0.002 C 
ATOM     26  CD1 LEU     3     -12.796  -8.823   8.040  1.00  0.00     0.000 C 
ATOM     27  CD2 LEU     3     -14.411 -10.659   7.485  1.00  0.00     0.000 C 
ENDBRANCH  24  25
ENDBRANCH   9  24
ENDBRANCH   7   9
ENDBRANCH   5   6
BRANCH   5  28
ATOM     28  CB  ASN     4     -14.669  -8.397   2.464  1.00  0.00     0.126 C 
BRANCH  28  29
ATOM     29  CG  ASN     4     -15.766  -8.375   3.546  1.00  0.00     0.276 C 
ATOM     30  ND2 ASN     4     -16.102  -7.200   4.008  1.00  0.00    -0.107 N 
ATOM     31  OD1 ASN     4     -16.359  -9.364   3.931  1.00  0.00    -0.269 OA
ENDBRANCH  28  29
ENDBRANCH   5  28
ENDBRANCH   3   5
ENDBRANCH   1   2
BRANCH   1  32
ATOM     32  CB  ARG     5     -12.982  -5.374   6.629  1.00  0.00     0.036 C 
BRANCH  32  33
ATOM     33  CG  ARG     5     -12.696  -4.017   7.273  1.00  0.00     0.029 C 
BRANCH  33  34
ATOM     34  CD  ARG     5     -12.947  -2.909   6.255  1.00  0.00     0.145 C 
BRANCH  34  35
ATOM     35  NE  ARG     5     -11.828  -1.937   6.206  1.00  0.00    -0.083 NA
ATOM     36  CZ  ARG     5     -11.974  -0.608   6.095  1.00  0.00     0.782 C 
ATOM     37  NH2 ARG     5     -10.940   0.223   6.304  1.00  0.00     0.063 N 
ATOM     38  NH1 ARG     5     -13.164  -0.058   5.900  1.00  0.00     0.063 N 
ENDBRANCH  34  35
ENDBRANCH  33  34
ENDBRANCH  32  33
ENDBRANCH   1  32
BRANCH   1  39
ATOM     39  C   ARG     5     -10.632  -5.918   5.934  1.00  0.00     0.256 C 
ATOM     40  O   ARG     5     -10.384  -6.850   6.705  1.00  0.00    -0.270 OA
ATOM     41  N   PRO     6      -9.682  -5.134   5.415  1.00  0.00    -0.312 N 
ATOM     42  CA  PRO     6      -8.255  -5.188   5.806  1.00  0.00     0.165 C 
ATOM     43  CD  PRO     6      -9.860  -4.212   4.272  1.00  0.00     0.105 C 
ATOM     44  CB  PRO     6      -7.593  -4.050   5.027  1.00  0.00     0.034 C 
ATOM     45  CG  PRO     6      -8.438  -3.963   3.765  1.00  0.00     0.027 C 
BRANCH  42  46
ATOM     46  C   PRO     6      -8.079  -4.991   7.321  1.00  0.00     0.272 C 
ATOM     47  N   SER     7      -7.288  -5.813   7.996  1.00  0.00    -0.226 NA
ATOM     48  O   PRO     6      -8.753  -4.144   7.915  1.00  0.00    -0.269 OA
BRANCH  47  49
ATOM     49  CA  SER     7      -6.522  -6.958   7.448  1.00  0.00     0.219 C 
BRANCH  49  50
ATOM     50  C   SER     7      -7.297  -8.282   7.571  1.00  0.00     0.277 C 
ATOM     51  O   SER     7      -7.773  -8.600   8.656  1.00  0.00    -0.268 OA
ATOM     52  N   GLY     8      -7.601  -8.881   6.428  1.00  0.00    -0.226 NA
BRANCH  52  53
ATOM     53  CA  GLY     8      -8.156 -10.259   6.385  1.00  0.00     0.218 C 
BRANCH  53  54
ATOM     54  C   GLY     8      -7.198 -11.437   6.638  1.00  0.00     0.277 C 
ATOM     55  N   GLY     9      -7.705 -12.518   7.248  1.00  0.00    -0.226 NA
ATOM     56  O   GLY     8      -6.043 -11.381   6.251  1.00  0.00    -0.268 OA
BRANCH  55  57
ATOM     57  CA  GLY     9      -6.894 -13.705   7.590  1.00  0.00     0.218 C 
BRANCH  57  58
ATOM     58  C   GLY     9      -7.222 -14.900   6.663  1.00  0.00     0.277 C 
ATOM     59  O   GLY     9      -7.987 -14.737   5.721  1.00  0.00    -0.268 OA
ATOM     60  N   CYS    10      -6.836 -16.135   6.952  1.00  0.00    -0.228 NA
BRANCH  60  61
ATOM     61  CA  CYS    10      -6.098 -16.603   8.150  1.00  0.00     0.198 C 
BRANCH  61  62
ATOM     62  CB  CYS    10      -7.035 -16.956   9.312  1.00  0.00     0.103 C 
ATOM     63  SG  CYS    10      -8.733 -17.489   8.910  1.00  0.00    -0.080 SA
ENDBRANCH  61  62
BRANCH  61  64
ATOM     64  C   CYS    10      -5.278 -17.874   7.923  1.00  0.00     0.275 C 
ATOM     65  O   CYS    10      -5.021 -18.603   8.879  1.00  0.00    -0.268 OA
ATOM     66  N   GLY    11      -5.188 -18.232   6.652  1.00  0.00    -0.225 NA
BRANCH  66  67
ATOM     67  CA  GLY    11      -3.988 -18.897   6.124  1.00  0.00     0.226 C 
BRANCH  67  68
ATOM     68  C   GLY    11      -4.435 -20.338   5.829  1.00  0.00     0.211 C 
ATOM     69  O2  GLY    11      -5.413 -20.452   5.059  1.00  0.00    -0.646 OA
ATOM     70  O1  GLY    11      -3.594 -21.236   6.061  1.00  0.00    -0.646 OA
ENDBRANCH  67  68
ENDBRANCH  66  67
ENDBRANCH  61  64
ENDBRANCH  60  61
ENDBRANCH  57  58
ENDBRANCH  55  57
ENDBRANCH  53  54
ENDBRANCH  52  53
ENDBRANCH  49  50
BRANCH  49  71
ATOM     71  CB  SER     7      -5.186  -7.143   8.172  1.00  0.00     0.216 C 
ATOM     72  OG  SER     7      -4.343  -8.017   7.421  1.00  0.00    -0.218 OA
ENDBRANCH  49  71
ENDBRANCH  47  49
ENDBRANCH  42  46
ENDBRANCH   1  39
TORSDOF 33
ENDMDL
