REMARK  28 active torsions:
REMARK  status: ('A' for Active; 'I' for Inactive)
REMARK       I    between atoms: C_1  and  N_3 
REMARK    1  A    between atoms: C_1  and  C_41 
REMARK    2  A    between atoms: N_3  and  C_5 
REMARK    3  A    between atoms: C_5  and  C_6 
REMARK    4  A    between atoms: C_5  and  C_18 
REMARK       I    between atoms: C_18  and  N_19 
REMARK    5  A    between atoms: C_20  and  C_25 
REMARK       I    between atoms: C_25  and  N_26 
REMARK    6  A    between atoms: N_26  and  C_29 
REMARK    7  A    between atoms: C_29  and  C_30 
REMARK    8  A    between atoms: C_29  and  C_38 
REMARK       I    between atoms: C_30  and  N_31 
REMARK    9  A    between atoms: N_31  and  C_34 
REMARK   10  A    between atoms: C_34  and  C_35 
REMARK   11  A    between atoms: C_38  and  O_39 
REMARK   12  A    between atoms: C_6  and  C_7 
REMARK   13  A    between atoms: C_7  and  C_8 
REMARK   14  A    between atoms: C_8  and  N_9 
REMARK       I    between atoms: N_9  and  C_10 
REMARK       I    between atoms: C_10  and  N_12 
REMARK   15  A    between atoms: C_41  and  C_42 
REMARK   16  A    between atoms: C_41  and  N_48 
REMARK       I    between atoms: N_48  and  C_50 
REMARK   17  A    between atoms: C_50  and  C_52 
REMARK   18  A    between atoms: C_52  and  N_53 
REMARK   19  A    between atoms: C_52  and  C_72 
REMARK       I    between atoms: N_53  and  C_55 
REMARK   20  A    between atoms: C_55  and  C_57 
REMARK   21  A    between atoms: C_57  and  N_58 
REMARK       I    between atoms: N_58  and  C_60 
REMARK   22  A    between atoms: C_60  and  C_62 
REMARK   23  A    between atoms: C_62  and  N_63 
REMARK   24  A    between atoms: C_62  and  C_67 
REMARK   25  A    between atoms: C_67  and  C_68 
REMARK   26  A    between atoms: C_68  and  C_69 
REMARK   27  A    between atoms: C_72  and  C_73 
REMARK   28  A    between atoms: C_42  and  C_43 
REMARK       I    between atoms: C_43  and  N_44 
ROOT
HETATM    1  C           0       0.595  -0.167   0.828  0.00  0.00     0.241 C 
HETATM    2  O           0       1.687  -0.628   1.179  0.00  0.00    -0.271 OA
HETATM    3  N           0      -0.052  -0.624  -0.270  0.00  0.00    -0.346 N 
HETATM    4  H           0      -0.928  -0.196  -0.545  0.00  0.00     0.163 HD
ENDROOT
BRANCH   3   5
HETATM    5  C           0       0.432  -1.813  -0.969  0.00  0.00     0.176 C 
BRANCH   5   6
HETATM    6  C           0      -0.642  -2.401  -1.899  0.00  0.00     0.036 C 
BRANCH   6   7
HETATM    7  C           0      -1.871  -2.853  -1.102  0.00  0.00     0.023 C 
BRANCH   7   8
HETATM    8  C           0      -2.894  -3.640  -1.921  0.00  0.00     0.138 C 
BRANCH   8   9
HETATM    9  N           0      -4.013  -3.956  -1.037  0.00  0.00    -0.227 N 
HETATM   10  C           0      -5.065  -4.717  -1.324  0.00  0.00     0.665 C 
HETATM   11  N           0      -5.238  -5.251  -2.541  0.00  0.00    -0.235 N 
HETATM   12  N           0      -5.955  -4.947  -0.341  0.00  0.00    -0.235 N 
HETATM   13  H           0      -5.959  -5.938  -2.703  0.00  0.00     0.174 HD
HETATM   14  H           0      -4.535  -5.146  -3.255  0.00  0.00     0.174 HD
HETATM   15  H           0      -6.873  -5.302  -0.560  0.00  0.00     0.174 HD
HETATM   16  H           0      -5.824  -4.400   0.513  0.00  0.00     0.174 HD
HETATM   17  H           0      -4.038  -3.548  -0.087  0.00  0.00     0.177 HD
ENDBRANCH   8   9
ENDBRANCH   7   8
ENDBRANCH   6   7
ENDBRANCH   5   6
BRANCH   5  18
HETATM   18  C           0       1.809  -1.664  -1.653  0.00  0.00     0.243 C 
HETATM   19  N           0       2.210  -0.459  -2.141  0.00  0.00    -0.337 N 
HETATM   20  C           0       3.575  -0.316  -2.676  0.00  0.00     0.179 C 
HETATM   21  C           0       1.348   0.640  -2.626  0.00  0.00     0.127 C 
HETATM   22  C           0       3.467   0.807  -3.745  0.00  0.00     0.037 C 
HETATM   23  C           0       1.958   0.955  -3.996  0.00  0.00     0.022 C 
HETATM   24  O           0       2.542  -2.657  -1.672  0.00  0.00    -0.271 OA
BRANCH  20  25
HETATM   25  C           0       4.647   0.038  -1.631  0.00  0.00     0.241 C 
HETATM   26  N           0       4.284   0.035  -0.323  0.00  0.00    -0.344 N 
HETATM   27  H           0       3.331  -0.207  -0.064  0.00  0.00     0.163 HD
HETATM   28  O           0       5.783   0.324  -2.017  0.00  0.00    -0.271 OA
BRANCH  26  29
HETATM   29  C           0       5.168   0.533   0.721  0.00  0.00     0.200 C 
BRANCH  29  30
HETATM   30  C           0       6.018  -0.530   1.444  0.00  0.00     0.242 C 
HETATM   31  N           0       5.845  -1.814   1.101  0.00  0.00    -0.354 N 
HETATM   32  H           0       5.219  -2.108   0.355  0.00  0.00     0.162 HD
HETATM   33  O           0       6.821  -0.159   2.314  0.00  0.00    -0.271 OA
BRANCH  31  34
HETATM   34  C           0       6.615  -2.905   1.669  0.00  0.00     0.203 C 
BRANCH  34  35
HETATM   35  C           0       6.288  -4.238   0.937  0.00  0.00     0.307 C 
HETATM   36  O           0       5.452  -4.167  -0.004  0.00  0.00    -0.186 OA
HETATM   37  O           0       6.899  -5.246   1.367  0.00  0.00    -0.186 OA
ENDBRANCH  34  35
ENDBRANCH  31  34
ENDBRANCH  29  30
BRANCH  29  38
HETATM   38  C           0       4.384   1.358   1.764  0.00  0.00     0.199 C 
BRANCH  38  39
HETATM   39  O           0       3.867   2.564   1.233  0.00  0.00    -0.398 OA
HETATM   40  H           0       2.988   2.405   0.849  0.00  0.00     0.209 HD
ENDBRANCH  38  39
ENDBRANCH  29  38
ENDBRANCH  26  29
ENDBRANCH  20  25
ENDBRANCH   5  18
ENDBRANCH   3   5
BRANCH   1  41
HETATM   41  C           0      -0.114   0.926   1.655  0.00  0.00     0.185 C 
BRANCH  41  42
HETATM   42  C           0      -1.255   0.362   2.523  0.00  0.00     0.137 C 
BRANCH  42  43
HETATM   43  C           0      -0.816  -0.647   3.584  0.00  0.00     0.217 C 
HETATM   44  N           0      -1.736  -1.598   3.855  0.00  0.00    -0.370 N 
HETATM   45  H           0      -1.540  -2.227   4.621  0.00  0.00     0.159 HD
HETATM   46  H           0      -2.674  -1.598   3.436  0.00  0.00     0.159 HD
HETATM   47  O           0       0.273  -0.560   4.157  0.00  0.00    -0.274 OA
ENDBRANCH  42  43
ENDBRANCH  41  42
BRANCH  41  48
HETATM   48  N           0      -0.686   1.969   0.812  0.00  0.00    -0.346 N 
HETATM   49  H           0      -1.689   1.981   0.680  0.00  0.00     0.163 HD
HETATM   50  C           0       0.052   2.862   0.121  0.00  0.00     0.241 C 
HETATM   51  O           0       1.289   2.863   0.119  0.00  0.00    -0.271 OA
BRANCH  50  52
HETATM   52  C           0      -0.725   3.933  -0.668  0.00  0.00     0.177 C 
BRANCH  52  53
HETATM   53  N           0      -2.096   3.525  -0.958  0.00  0.00    -0.346 N 
HETATM   54  H           0      -2.854   3.969  -0.455  0.00  0.00     0.163 HD
HETATM   55  C           0      -2.391   2.662  -1.967  0.00  0.00     0.236 C 
HETATM   56  O           0      -1.536   2.170  -2.699  0.00  0.00    -0.272 OA
BRANCH  55  57
HETATM   57  C           0      -3.876   2.337  -2.179  0.00  0.00     0.225 C 
BRANCH  57  58
HETATM   58  N           0      -4.658   2.271  -0.946  0.00  0.00    -0.351 N 
HETATM   59  H           0      -5.532   2.777  -0.926  0.00  0.00     0.163 HD
HETATM   60  C           0      -4.355   1.336  -0.015  0.00  0.00     0.248 C 
HETATM   61  O           0      -3.375   0.594  -0.141  0.00  0.00    -0.271 OA
BRANCH  60  62
HETATM   62  C           0      -5.209   1.191   1.250  0.00  0.00     0.275 C 
BRANCH  62  63
HETATM   63  N           0      -5.797   2.509   1.726  0.00  0.00    -0.066 N 
HETATM   64  H           0      -5.109   3.270   1.725  0.00  0.00     0.275 HD
HETATM   65  H           0      -6.612   2.817   1.187  0.00  0.00     0.275 HD
HETATM   66  H           0      -6.120   2.408   2.694  0.00  0.00     0.275 HD
ENDBRANCH  62  63
BRANCH  62  67
HETATM   67  C           0      -6.336   0.150   1.151  0.00  0.00     0.053 C 
BRANCH  67  68
HETATM   68  C           0      -5.863  -1.263   0.789  0.00  0.00     0.115 C 
BRANCH  68  69
HETATM   69  C           0      -4.868  -1.932   1.758  0.00  0.00     0.172 C 
HETATM   70  O           0      -4.361  -1.242   2.681  0.00  0.00    -0.648 OA
HETATM   71  O           0      -4.612  -3.159   1.533  0.00  0.00    -0.648 OA
ENDBRANCH  68  69
ENDBRANCH  67  68
ENDBRANCH  62  67
ENDBRANCH  60  62
ENDBRANCH  57  58
ENDBRANCH  55  57
ENDBRANCH  52  53
BRANCH  52  72
HETATM   72  C           0      -0.749   5.287   0.078  0.00  0.00     0.038 C 
BRANCH  72  73
HETATM   73  C           0       0.612   5.946   0.373  0.00  0.00    -0.020 C 
HETATM   74  C           0       1.417   6.232  -0.903  0.00  0.00     0.009 C 
HETATM   75  C           0       0.384   7.236   1.177  0.00  0.00     0.009 C 
ENDBRANCH  72  73
ENDBRANCH  52  72
ENDBRANCH  50  52
ENDBRANCH  41  48
ENDBRANCH   1  41
TORSDOF 28
