MODEL 1
REMARK VINA RESULT:      -3.6      0.000      0.000
REMARK WARNING: 32 MAX_TORS EXCEEDED!!!
REMARK  33 active torsions:
REMARK  status: ('A' for Active; 'I' for Inactive)
REMARK    1  A    between atoms: CA_2  and  C_8 
REMARK    2  A    between atoms: CA_2  and  CB_3 
REMARK    3  A    between atoms: CB_3  and  CG_4 
REMARK    4  A    between atoms: CG_4  and  CD_5 
REMARK       I    between atoms: C_8  and  N_10 
REMARK    5  A    between atoms: N_10  and  CA_11 
REMARK    6  A    between atoms: CA_11  and  C_12 
REMARK       I    between atoms: C_12  and  N_14 
REMARK    7  A    between atoms: N_14  and  CA_15 
REMARK    8  A    between atoms: CA_15  and  C_20 
REMARK    9  A    between atoms: CA_15  and  CB_16 
REMARK   10  A    between atoms: CB_16  and  CG_17 
REMARK       I    between atoms: C_20  and  N_22 
REMARK   11  A    between atoms: N_22  and  CA_23 
REMARK   12  A    between atoms: CA_23  and  CB_24 
REMARK   13  A    between atoms: CA_23  and  C_28 
REMARK   14  A    between atoms: CB_24  and  CG_25 
REMARK       I    between atoms: C_28  and  N_30 
REMARK   15  A    between atoms: N_30  and  CA_31 
REMARK   16  A    between atoms: CA_31  and  CB_32 
REMARK   17  A    between atoms: CA_31  and  C_39 
REMARK   18  A    between atoms: CB_32  and  CG_33 
REMARK   19  A    between atoms: CG_33  and  CD_34 
REMARK   20  A    between atoms: CD_34  and  NE_35 
REMARK       I    between atoms: C_39  and  N_41 
REMARK   21  A    between atoms: CA_42  and  C_46 
REMARK       I    between atoms: C_46  and  N_48 
REMARK   22  A    between atoms: N_48  and  CA_49 
REMARK   23  A    between atoms: CA_49  and  C_52 
REMARK   24  A    between atoms: CA_49  and  CB_50 
REMARK       I    between atoms: C_52  and  N_54 
REMARK   25  A    between atoms: N_54  and  CA_55 
REMARK   26  A    between atoms: CA_55  and  C_56 
REMARK       I    between atoms: C_56  and  N_58 
REMARK   27  A    between atoms: N_58  and  CA_59 
REMARK   28  A    between atoms: CA_59  and  C_60 
REMARK       I    between atoms: C_60  and  N_62 
REMARK   29  A    between atoms: N_62  and  CA_63 
REMARK   30  A    between atoms: CA_63  and  CB_64 
REMARK   31  A    between atoms: CA_63  and  C_66 
REMARK       I    between atoms: C_66  and  N_68 
REMARK   32  A    between atoms: N_68  and  CA_69 
REMARK   33  A    between atoms: CA_69  and  C_70 
ROOT
ATOM      1  CA  ARG     5      -0.613   4.999   8.736  1.00  0.00     0.185 C 
ENDROOT
BRANCH   1   2
ATOM      2  N   ARG     5       0.787   5.080   8.281  1.00  0.00    -0.229 NA
ATOM      3  C   ASN     4       1.830   4.541   8.893  1.00  0.00     0.275 C 
ATOM      4  O   ASN     4       1.811   4.120  10.045  1.00  0.00    -0.268 OA
BRANCH   3   5
ATOM      5  CA  ASN     4       3.156   4.798   8.148  1.00  0.00     0.196 C 
BRANCH   5   6
ATOM      6  N   ASN     4       3.972   5.801   8.864  1.00  0.00    -0.228 NA
ATOM      7  C   LEU     3       3.836   7.113   8.684  1.00  0.00     0.274 C 
ATOM      8  O   LEU     3       3.024   7.642   7.920  1.00  0.00    -0.268 OA
BRANCH   7   9
ATOM      9  CA  LEU     3       4.738   7.980   9.562  1.00  0.00     0.186 C 
BRANCH   9  10
ATOM     10  N   LEU     3       6.156   7.719   9.225  1.00  0.00    -0.229 NA
ATOM     11  C   GLY     2       7.038   7.251  10.113  1.00  0.00     0.277 C 
ATOM     12  O   GLY     2       6.722   6.853  11.224  1.00  0.00    -0.268 OA
BRANCH  11  13
ATOM     13  CA  GLY     2       8.483   7.073   9.601  1.00  0.00     0.218 C 
BRANCH  13  14
ATOM     14  N   GLY     2       9.099   8.190   8.845  1.00  0.00    -0.226 NA
ATOM     15  C   GLU     1       9.334   9.382   9.406  1.00  0.00     0.289 C 
ATOM     16  O   GLU     1       9.206   9.549  10.608  1.00  0.00    -0.268 OA
BRANCH  15  17
ATOM     17  CA  GLU     1       9.862  10.536   8.513  1.00  0.00     0.381 C 
ATOM     18  N   GLU     1       8.857  11.064   7.574  1.00  0.00     0.626 N 
BRANCH  17  19
ATOM     19  CB  GLU     1      10.415  11.650   9.426  1.00  0.00     0.060 C 
BRANCH  19  20
ATOM     20  CG  GLU     1      10.650  13.053   8.846  1.00  0.00     0.100 C 
BRANCH  20  21
ATOM     21  CD  GLU     1       9.754  14.121   9.492  1.00  0.00     0.185 C 
ATOM     22  OE1 GLU     1      10.295  15.018  10.163  1.00  0.00    -0.647 OA
ATOM     23  OE2 GLU     1       8.523  14.029   9.345  1.00  0.00    -0.647 OA
ENDBRANCH  20  21
ENDBRANCH  19  20
ENDBRANCH  17  19
ENDBRANCH  15  17
ENDBRANCH  13  14
ENDBRANCH  11  13
ENDBRANCH   9  10
BRANCH   9  24
ATOM     24  CB  LEU     3       4.391   9.454   9.321  1.00  0.00     0.034 C 
BRANCH  24  25
ATOM     25  CG  LEU     3       5.607  10.396   9.376  1.00  0.00     0.002 C 
ATOM     26  CD1 LEU     3       5.420  11.528   8.367  1.00  0.00     0.000 C 
ATOM     27  CD2 LEU     3       5.799  10.973  10.782  1.00  0.00     0.000 C 
ENDBRANCH  24  25
ENDBRANCH   9  24
ENDBRANCH   7   9
ENDBRANCH   5   6
BRANCH   5  28
ATOM     28  CB  ASN     4       3.958   3.498   7.959  1.00  0.00     0.126 C 
BRANCH  28  29
ATOM     29  CG  ASN     4       5.482   3.687   8.086  1.00  0.00     0.276 C 
ATOM     30  ND2 ASN     4       6.174   2.625   8.399  1.00  0.00    -0.107 N 
ATOM     31  OD1 ASN     4       6.058   4.732   7.850  1.00  0.00    -0.269 OA
ENDBRANCH  28  29
ENDBRANCH   5  28
ENDBRANCH   3   5
ENDBRANCH   1   2
BRANCH   1  32
ATOM     32  CB  ARG     5      -0.681   4.468  10.173  1.00  0.00     0.036 C 
BRANCH  32  33
ATOM     33  CG  ARG     5      -1.351   3.098  10.295  1.00  0.00     0.029 C 
BRANCH  33  34
ATOM     34  CD  ARG     5      -2.405   2.949   9.203  1.00  0.00     0.145 C 
BRANCH  34  35
ATOM     35  NE  ARG     5      -3.731   3.451   9.640  1.00  0.00    -0.083 NA
ATOM     36  CZ  ARG     5      -4.573   2.786  10.445  1.00  0.00     0.782 C 
ATOM     37  NH2 ARG     5      -5.636   3.396  10.993  1.00  0.00     0.063 N 
ATOM     38  NH1 ARG     5      -4.322   1.543  10.830  1.00  0.00     0.063 N 
ENDBRANCH  34  35
ENDBRANCH  33  34
ENDBRANCH  32  33
ENDBRANCH   1  32
BRANCH   1  39
ATOM     39  C   ARG     5      -1.257   6.396   8.672  1.00  0.00     0.256 C 
ATOM     40  O   ARG     5      -2.278   6.571   8.000  1.00  0.00    -0.270 OA
ATOM     41  N   PRO     6      -0.726   7.350   9.445  1.00  0.00    -0.312 N 
ATOM     42  CA  PRO     6      -1.200   8.751   9.479  1.00  0.00     0.165 C 
ATOM     43  CD  PRO     6       0.294   7.134  10.493  1.00  0.00     0.105 C 
ATOM     44  CB  PRO     6      -0.231   9.470  10.419  1.00  0.00     0.034 C 
ATOM     45  CG  PRO     6       0.183   8.371  11.387  1.00  0.00     0.027 C 
BRANCH  42  46
ATOM     46  C   PRO     6      -1.177   9.386   8.078  1.00  0.00     0.272 C 
ATOM     47  N   SER     7      -2.206  10.120   7.679  1.00  0.00    -0.226 NA
ATOM     48  O   PRO     6      -0.258   9.124   7.296  1.00  0.00    -0.269 OA
BRANCH  47  49
ATOM     49  CA  SER     7      -3.439  10.413   8.448  1.00  0.00     0.219 C 
BRANCH  49  50
ATOM     50  C   SER     7      -4.373   9.191   8.526  1.00  0.00     0.277 C 
ATOM     51  O   SER     7      -4.620   8.694   9.620  1.00  0.00    -0.268 OA
ATOM     52  N   GLY     8      -5.038   8.902   7.417  1.00  0.00    -0.226 NA
BRANCH  52  53
ATOM     53  CA  GLY     8      -5.810   7.640   7.268  1.00  0.00     0.218 C 
BRANCH  53  54
ATOM     54  C   GLY     8      -7.338   7.699   7.443  1.00  0.00     0.277 C 
ATOM     55  N   GLY     9      -7.967   6.548   7.725  1.00  0.00    -0.226 NA
ATOM     56  O   GLY     8      -7.924   8.766   7.366  1.00  0.00    -0.268 OA
BRANCH  55  57
ATOM     57  CA  GLY     9      -9.433   6.448   7.880  1.00  0.00     0.218 C 
BRANCH  57  58
ATOM     58  C   GLY     9      -9.853   6.556   9.365  1.00  0.00     0.277 C 
ATOM     59  O   GLY     9      -9.239   7.309  10.110  1.00  0.00    -0.268 OA
ATOM     60  N   CYS    10     -10.749   5.738   9.900  1.00  0.00    -0.228 NA
BRANCH  60  61
ATOM     61  CA  CYS    10     -11.453   4.607   9.248  1.00  0.00     0.198 C 
BRANCH  61  62
ATOM     62  CB  CYS    10     -11.525   3.367  10.147  1.00  0.00     0.103 C 
ATOM     63  SG  CYS    10     -10.257   2.072   9.922  1.00  0.00    -0.080 SA
ENDBRANCH  61  62
BRANCH  61  64
ATOM     64  C   CYS    10     -12.911   4.902   8.890  1.00  0.00     0.275 C 
ATOM     65  O   CYS    10     -13.328   6.056   8.970  1.00  0.00    -0.268 OA
ATOM     66  N   GLY    11     -13.506   3.927   8.222  1.00  0.00    -0.225 NA
BRANCH  66  67
ATOM     67  CA  GLY    11     -14.940   3.647   8.385  1.00  0.00     0.226 C 
BRANCH  67  68
ATOM     68  C   GLY    11     -15.029   2.119   8.519  1.00  0.00     0.211 C 
ATOM     69  O2  GLY    11     -13.936   1.514   8.529  1.00  0.00    -0.646 OA
ATOM     70  O1  GLY    11     -16.106   1.666   8.970  1.00  0.00    -0.646 OA
ENDBRANCH  67  68
ENDBRANCH  66  67
ENDBRANCH  61  64
ENDBRANCH  60  61
ENDBRANCH  57  58
ENDBRANCH  55  57
ENDBRANCH  53  54
ENDBRANCH  52  53
ENDBRANCH  49  50
BRANCH  49  71
ATOM     71  CB  SER     7      -4.239  11.558   7.823  1.00  0.00     0.216 C 
ATOM     72  OG  SER     7      -3.902  12.791   8.459  1.00  0.00    -0.218 OA
ENDBRANCH  49  71
ENDBRANCH  47  49
ENDBRANCH  42  46
ENDBRANCH   1  39
TORSDOF 33
ENDMDL
MODEL 2
REMARK VINA RESULT:      -3.5     18.712     23.389
REMARK WARNING: 32 MAX_TORS EXCEEDED!!!
REMARK  33 active torsions:
REMARK  status: ('A' for Active; 'I' for Inactive)
REMARK    1  A    between atoms: CA_2  and  C_8 
REMARK    2  A    between atoms: CA_2  and  CB_3 
REMARK    3  A    between atoms: CB_3  and  CG_4 
REMARK    4  A    between atoms: CG_4  and  CD_5 
REMARK       I    between atoms: C_8  and  N_10 
REMARK    5  A    between atoms: N_10  and  CA_11 
REMARK    6  A    between atoms: CA_11  and  C_12 
REMARK       I    between atoms: C_12  and  N_14 
REMARK    7  A    between atoms: N_14  and  CA_15 
REMARK    8  A    between atoms: CA_15  and  C_20 
REMARK    9  A    between atoms: CA_15  and  CB_16 
REMARK   10  A    between atoms: CB_16  and  CG_17 
REMARK       I    between atoms: C_20  and  N_22 
REMARK   11  A    between atoms: N_22  and  CA_23 
REMARK   12  A    between atoms: CA_23  and  CB_24 
REMARK   13  A    between atoms: CA_23  and  C_28 
REMARK   14  A    between atoms: CB_24  and  CG_25 
REMARK       I    between atoms: C_28  and  N_30 
REMARK   15  A    between atoms: N_30  and  CA_31 
REMARK   16  A    between atoms: CA_31  and  CB_32 
REMARK   17  A    between atoms: CA_31  and  C_39 
REMARK   18  A    between atoms: CB_32  and  CG_33 
REMARK   19  A    between atoms: CG_33  and  CD_34 
REMARK   20  A    between atoms: CD_34  and  NE_35 
REMARK       I    between atoms: C_39  and  N_41 
REMARK   21  A    between atoms: CA_42  and  C_46 
REMARK       I    between atoms: C_46  and  N_48 
REMARK   22  A    between atoms: N_48  and  CA_49 
REMARK   23  A    between atoms: CA_49  and  C_52 
REMARK   24  A    between atoms: CA_49  and  CB_50 
REMARK       I    between atoms: C_52  and  N_54 
REMARK   25  A    between atoms: N_54  and  CA_55 
REMARK   26  A    between atoms: CA_55  and  C_56 
REMARK       I    between atoms: C_56  and  N_58 
REMARK   27  A    between atoms: N_58  and  CA_59 
REMARK   28  A    between atoms: CA_59  and  C_60 
REMARK       I    between atoms: C_60  and  N_62 
REMARK   29  A    between atoms: N_62  and  CA_63 
REMARK   30  A    between atoms: CA_63  and  CB_64 
REMARK   31  A    between atoms: CA_63  and  C_66 
REMARK       I    between atoms: C_66  and  N_68 
REMARK   32  A    between atoms: N_68  and  CA_69 
REMARK   33  A    between atoms: CA_69  and  C_70 
ROOT
ATOM      1  CA  ARG     5      -3.953 -18.182  10.195  1.00  0.00     0.185 C 
ENDROOT
BRANCH   1   2
ATOM      2  N   ARG     5      -3.230 -18.789   9.062  1.00  0.00    -0.229 NA
ATOM      3  C   ASN     4      -2.646 -19.977   9.066  1.00  0.00     0.275 C 
ATOM      4  O   ASN     4      -2.409 -20.625  10.080  1.00  0.00    -0.268 OA
BRANCH   3   5
ATOM      5  CA  ASN     4      -1.988 -20.322   7.714  1.00  0.00     0.196 C 
BRANCH   5   6
ATOM      6  N   ASN     4      -0.532 -20.069   7.764  1.00  0.00    -0.228 NA
ATOM      7  C   LEU     3       0.205 -20.264   8.854  1.00  0.00     0.274 C 
ATOM      8  O   LEU     3      -0.225 -20.680   9.934  1.00  0.00    -0.268 OA
BRANCH   7   9
ATOM      9  CA  LEU     3       1.699 -19.994   8.679  1.00  0.00     0.186 C 
BRANCH   9  10
ATOM     10  N   LEU     3       2.047 -18.702   9.311  1.00  0.00    -0.229 NA
ATOM     11  C   GLY     2       2.988 -17.887   8.826  1.00  0.00     0.277 C 
ATOM     12  O   GLY     2       3.530 -18.059   7.744  1.00  0.00    -0.268 OA
BRANCH  11  13
ATOM     13  CA  GLY     2       3.248 -16.597   9.633  1.00  0.00     0.218 C 
BRANCH  13  14
ATOM     14  N   GLY     2       4.308 -15.677   9.156  1.00  0.00    -0.226 NA
ATOM     15  C   GLU     1       5.597 -15.857   9.468  1.00  0.00     0.289 C 
ATOM     16  O   GLU     1       5.976 -16.878  10.018  1.00  0.00    -0.268 OA
BRANCH  15  17
ATOM     17  CA  GLU     1       6.626 -14.779   9.037  1.00  0.00     0.381 C 
ATOM     18  N   GLU     1       7.559 -14.389  10.110  1.00  0.00     0.626 N 
BRANCH  17  19
ATOM     19  CB  GLU     1       7.384 -15.291   7.795  1.00  0.00     0.060 C 
BRANCH  19  20
ATOM     20  CG  GLU     1       8.495 -16.339   7.969  1.00  0.00     0.100 C 
BRANCH  20  21
ATOM     21  CD  GLU     1       9.768 -15.757   8.600  1.00  0.00     0.185 C 
ATOM     22  OE1 GLU     1      10.442 -14.950   7.935  1.00  0.00    -0.647 OA
ATOM     23  OE2 GLU     1      10.092 -16.139   9.738  1.00  0.00    -0.647 OA
ENDBRANCH  20  21
ENDBRANCH  19  20
ENDBRANCH  17  19
ENDBRANCH  15  17
ENDBRANCH  13  14
ENDBRANCH  11  13
ENDBRANCH   9  10
BRANCH   9  24
ATOM     24  CB  LEU     3       2.487 -21.139   9.328  1.00  0.00     0.034 C 
BRANCH  24  25
ATOM     25  CG  LEU     3       3.868 -21.382   8.693  1.00  0.00     0.002 C 
ATOM     26  CD1 LEU     3       4.943 -20.703   9.538  1.00  0.00     0.000 C 
ATOM     27  CD2 LEU     3       4.166 -22.880   8.569  1.00  0.00     0.000 C 
ENDBRANCH  24  25
ENDBRANCH   9  24
ENDBRANCH   7   9
ENDBRANCH   5   6
BRANCH   5  28
ATOM     28  CB  ASN     4      -2.260 -21.781   7.310  1.00  0.00     0.126 C 
BRANCH  28  29
ATOM     29  CG  ASN     4      -3.702 -22.243   7.595  1.00  0.00     0.276 C 
ATOM     30  ND2 ASN     4      -4.654 -21.410   7.268  1.00  0.00    -0.107 N 
ATOM     31  OD1 ASN     4      -3.988 -23.340   8.036  1.00  0.00    -0.269 OA
ENDBRANCH  28  29
ENDBRANCH   5  28
ENDBRANCH   3   5
ENDBRANCH   1   2
BRANCH   1  32
ATOM     32  CB  ARG     5      -2.995 -17.362  11.066  1.00  0.00     0.036 C 
BRANCH  32  33
ATOM     33  CG  ARG     5      -1.809 -16.775  10.299  1.00  0.00     0.029 C 
BRANCH  33  34
ATOM     34  CD  ARG     5      -1.736 -15.273  10.550  1.00  0.00     0.145 C 
BRANCH  34  35
ATOM     35  NE  ARG     5      -2.974 -14.755  11.183  1.00  0.00    -0.083 NA
ATOM     36  CZ  ARG     5      -3.479 -13.529  10.985  1.00  0.00     0.782 C 
ATOM     37  NH2 ARG     5      -4.720 -13.216  11.392  1.00  0.00     0.063 N 
ATOM     38  NH1 ARG     5      -2.827 -12.620  10.274  1.00  0.00     0.063 N 
ENDBRANCH  34  35
ENDBRANCH  33  34
ENDBRANCH  32  33
ENDBRANCH   1  32
BRANCH   1  39
ATOM     39  C   ARG     5      -5.074 -17.270   9.662  1.00  0.00     0.256 C 
ATOM     40  O   ARG     5      -4.802 -16.135   9.262  1.00  0.00    -0.270 OA
ATOM     41  N   PRO     6      -6.297 -17.800   9.563  1.00  0.00    -0.312 N 
ATOM     42  CA  PRO     6      -7.491 -17.055   9.104  1.00  0.00     0.165 C 
ATOM     43  CD  PRO     6      -6.628 -19.232   9.734  1.00  0.00     0.105 C 
ATOM     44  CB  PRO     6      -8.650 -18.041   9.257  1.00  0.00     0.034 C 
ATOM     45  CG  PRO     6      -7.982 -19.391   9.040  1.00  0.00     0.027 C 
BRANCH  42  46
ATOM     46  C   PRO     6      -7.726 -15.795   9.952  1.00  0.00     0.272 C 
ATOM     47  N   SER     7      -7.950 -14.636   9.348  1.00  0.00    -0.226 NA
ATOM     48  O   PRO     6      -7.600 -15.844  11.179  1.00  0.00    -0.269 OA
BRANCH  47  49
ATOM     49  CA  SER     7      -7.995 -14.391   7.886  1.00  0.00     0.219 C 
BRANCH  49  50
ATOM     50  C   SER     7      -7.687 -12.924   7.538  1.00  0.00     0.277 C 
ATOM     51  O   SER     7      -8.612 -12.158   7.294  1.00  0.00    -0.268 OA
ATOM     52  N   GLY     8      -6.440 -12.528   7.758  1.00  0.00    -0.226 NA
BRANCH  52  53
ATOM     53  CA  GLY     8      -5.936 -11.214   7.280  1.00  0.00     0.218 C 
BRANCH  53  54
ATOM     54  C   GLY     8      -6.008 -10.015   8.242  1.00  0.00     0.277 C 
ATOM     55  N   GLY     9      -7.127  -9.276   8.217  1.00  0.00    -0.226 NA
ATOM     56  O   GLY     8      -5.091  -9.793   9.016  1.00  0.00    -0.268 OA
BRANCH  55  57
ATOM     57  CA  GLY     9      -7.320  -8.075   9.055  1.00  0.00     0.218 C 
BRANCH  57  58
ATOM     58  C   GLY     9      -7.390  -6.791   8.195  1.00  0.00     0.277 C 
ATOM     59  O   GLY     9      -6.574  -6.623   7.298  1.00  0.00    -0.268 OA
ATOM     60  N   CYS    10      -8.200  -5.788   8.503  1.00  0.00    -0.228 NA
BRANCH  60  61
ATOM     61  CA  CYS    10      -9.111  -5.675   9.668  1.00  0.00     0.198 C 
BRANCH  61  62
ATOM     62  CB  CYS    10      -9.161  -4.252  10.236  1.00  0.00     0.103 C 
ATOM     63  SG  CYS    10      -7.936  -3.044   9.626  1.00  0.00    -0.080 SA
ENDBRANCH  61  62
BRANCH  61  64
ATOM     64  C   CYS    10     -10.570  -6.013   9.355  1.00  0.00     0.275 C 
ATOM     65  O   CYS    10     -11.462  -5.518  10.043  1.00  0.00    -0.268 OA
ATOM     66  N   GLY    11     -10.749  -6.564   8.166  1.00  0.00    -0.225 NA
BRANCH  66  67
ATOM     67  CA  GLY    11     -11.804  -7.560   7.931  1.00  0.00     0.226 C 
BRANCH  67  68
ATOM     68  C   GLY    11     -11.143  -8.913   8.235  1.00  0.00     0.211 C 
ATOM     69  O2  GLY    11     -11.857  -9.738   8.844  1.00  0.00    -0.646 OA
ATOM     70  O1  GLY    11     -10.137  -9.203   7.548  1.00  0.00    -0.646 OA
ENDBRANCH  67  68
ENDBRANCH  66  67
ENDBRANCH  61  64
ENDBRANCH  60  61
ENDBRANCH  57  58
ENDBRANCH  55  57
ENDBRANCH  53  54
ENDBRANCH  52  53
ENDBRANCH  49  50
BRANCH  49  71
ATOM     71  CB  SER     7      -9.369 -14.720   7.300  1.00  0.00     0.216 C 
ATOM     72  OG  SER     7     -10.381 -14.516   8.287  1.00  0.00    -0.218 OA
ENDBRANCH  49  71
ENDBRANCH  47  49
ENDBRANCH  42  46
ENDBRANCH   1  39
TORSDOF 33
ENDMDL
MODEL 3
REMARK VINA RESULT:      -3.4      2.348      4.204
REMARK WARNING: 32 MAX_TORS EXCEEDED!!!
REMARK  33 active torsions:
REMARK  status: ('A' for Active; 'I' for Inactive)
REMARK    1  A    between atoms: CA_2  and  C_8 
REMARK    2  A    between atoms: CA_2  and  CB_3 
REMARK    3  A    between atoms: CB_3  and  CG_4 
REMARK    4  A    between atoms: CG_4  and  CD_5 
REMARK       I    between atoms: C_8  and  N_10 
REMARK    5  A    between atoms: N_10  and  CA_11 
REMARK    6  A    between atoms: CA_11  and  C_12 
REMARK       I    between atoms: C_12  and  N_14 
REMARK    7  A    between atoms: N_14  and  CA_15 
REMARK    8  A    between atoms: CA_15  and  C_20 
REMARK    9  A    between atoms: CA_15  and  CB_16 
REMARK   10  A    between atoms: CB_16  and  CG_17 
REMARK       I    between atoms: C_20  and  N_22 
REMARK   11  A    between atoms: N_22  and  CA_23 
REMARK   12  A    between atoms: CA_23  and  CB_24 
REMARK   13  A    between atoms: CA_23  and  C_28 
REMARK   14  A    between atoms: CB_24  and  CG_25 
REMARK       I    between atoms: C_28  and  N_30 
REMARK   15  A    between atoms: N_30  and  CA_31 
REMARK   16  A    between atoms: CA_31  and  CB_32 
REMARK   17  A    between atoms: CA_31  and  C_39 
REMARK   18  A    between atoms: CB_32  and  CG_33 
REMARK   19  A    between atoms: CG_33  and  CD_34 
REMARK   20  A    between atoms: CD_34  and  NE_35 
REMARK       I    between atoms: C_39  and  N_41 
REMARK   21  A    between atoms: CA_42  and  C_46 
REMARK       I    between atoms: C_46  and  N_48 
REMARK   22  A    between atoms: N_48  and  CA_49 
REMARK   23  A    between atoms: CA_49  and  C_52 
REMARK   24  A    between atoms: CA_49  and  CB_50 
REMARK       I    between atoms: C_52  and  N_54 
REMARK   25  A    between atoms: N_54  and  CA_55 
REMARK   26  A    between atoms: CA_55  and  C_56 
REMARK       I    between atoms: C_56  and  N_58 
REMARK   27  A    between atoms: N_58  and  CA_59 
REMARK   28  A    between atoms: CA_59  and  C_60 
REMARK       I    between atoms: C_60  and  N_62 
REMARK   29  A    between atoms: N_62  and  CA_63 
REMARK   30  A    between atoms: CA_63  and  CB_64 
REMARK   31  A    between atoms: CA_63  and  C_66 
REMARK       I    between atoms: C_66  and  N_68 
REMARK   32  A    between atoms: N_68  and  CA_69 
REMARK   33  A    between atoms: CA_69  and  C_70 
ROOT
ATOM      1  CA  ARG     5      -0.896   4.913   8.688  1.00  0.00     0.185 C 
ENDROOT
BRANCH   1   2
ATOM      2  N   ARG     5       0.471   5.069   8.155  1.00  0.00    -0.229 NA
ATOM      3  C   ASN     4       1.567   4.541   8.676  1.00  0.00     0.275 C 
ATOM      4  O   ASN     4       1.634   4.064   9.804  1.00  0.00    -0.268 OA
BRANCH   3   5
ATOM      5  CA  ASN     4       2.836   4.885   7.868  1.00  0.00     0.196 C 
BRANCH   5   6
ATOM      6  N   ASN     4       3.795   5.643   8.699  1.00  0.00    -0.228 NA
ATOM      7  C   LEU     3       4.039   6.940   8.531  1.00  0.00     0.274 C 
ATOM      8  O   LEU     3       3.499   7.657   7.684  1.00  0.00    -0.268 OA
BRANCH   7   9
ATOM      9  CA  LEU     3       5.024   7.545   9.530  1.00  0.00     0.186 C 
BRANCH   9  10
ATOM     10  N   LEU     3       6.374   6.987   9.294  1.00  0.00    -0.229 NA
ATOM     11  C   GLY     2       7.460   7.415   9.945  1.00  0.00     0.277 C 
ATOM     12  O   GLY     2       7.412   8.186  10.893  1.00  0.00    -0.268 OA
BRANCH  11  13
ATOM     13  CA  GLY     2       8.794   6.749   9.548  1.00  0.00     0.218 C 
BRANCH  13  14
ATOM     14  N   GLY     2       8.996   5.324   9.904  1.00  0.00    -0.226 NA
ATOM     15  C   GLU     1       9.905   4.560   9.287  1.00  0.00     0.289 C 
ATOM     16  O   GLU     1      10.720   5.045   8.521  1.00  0.00    -0.268 OA
BRANCH  15  17
ATOM     17  CA  GLU     1       9.965   3.047   9.629  1.00  0.00     0.381 C 
ATOM     18  N   GLU     1      10.264   2.772  11.046  1.00  0.00     0.626 N 
BRANCH  17  19
ATOM     19  CB  GLU     1       8.635   2.394   9.201  1.00  0.00     0.060 C 
BRANCH  19  20
ATOM     20  CG  GLU     1       8.032   1.275  10.064  1.00  0.00     0.100 C 
BRANCH  20  21
ATOM     21  CD  GLU     1       8.574  -0.115   9.700  1.00  0.00     0.185 C 
ATOM     22  OE1 GLU     1       8.617  -0.984  10.590  1.00  0.00    -0.647 OA
ATOM     23  OE2 GLU     1       8.977  -0.309   8.540  1.00  0.00    -0.647 OA
ENDBRANCH  20  21
ENDBRANCH  19  20
ENDBRANCH  17  19
ENDBRANCH  15  17
ENDBRANCH  13  14
ENDBRANCH  11  13
ENDBRANCH   9  10
BRANCH   9  24
ATOM     24  CB  LEU     3       5.034   9.068   9.352  1.00  0.00     0.034 C 
BRANCH  24  25
ATOM     25  CG  LEU     3       3.832   9.778  10.002  1.00  0.00     0.002 C 
ATOM     26  CD1 LEU     3       3.588   9.196  11.392  1.00  0.00     0.000 C 
ATOM     27  CD2 LEU     3       4.066  11.289  10.099  1.00  0.00     0.000 C 
ENDBRANCH  24  25
ENDBRANCH   9  24
ENDBRANCH   7   9
ENDBRANCH   5   6
BRANCH   5  28
ATOM     28  CB  ASN     4       3.505   3.620   7.304  1.00  0.00     0.126 C 
BRANCH  28  29
ATOM     29  CG  ASN     4       4.903   3.345   7.891  1.00  0.00     0.276 C 
ATOM     30  ND2 ASN     4       5.013   2.297   8.662  1.00  0.00    -0.107 N 
ATOM     31  OD1 ASN     4       5.892   4.002   7.625  1.00  0.00    -0.269 OA
ENDBRANCH  28  29
ENDBRANCH   5  28
ENDBRANCH   3   5
ENDBRANCH   1   2
BRANCH   1  32
ATOM     32  CB  ARG     5      -0.858   4.300  10.092  1.00  0.00     0.036 C 
BRANCH  32  33
ATOM     33  CG  ARG     5      -1.388   2.867  10.157  1.00  0.00     0.029 C 
BRANCH  33  34
ATOM     34  CD  ARG     5      -2.894   2.894  10.395  1.00  0.00     0.145 C 
BRANCH  34  35
ATOM     35  NE  ARG     5      -3.654   2.510   9.180  1.00  0.00    -0.083 NA
ATOM     36  CZ  ARG     5      -4.297   1.344   9.017  1.00  0.00     0.782 C 
ATOM     37  NH2 ARG     5      -5.161   1.164   8.004  1.00  0.00     0.063 N 
ATOM     38  NH1 ARG     5      -4.203   0.372   9.914  1.00  0.00     0.063 N 
ENDBRANCH  34  35
ENDBRANCH  33  34
ENDBRANCH  32  33
ENDBRANCH   1  32
BRANCH   1  39
ATOM     39  C   ARG     5      -1.588   6.287   8.743  1.00  0.00     0.256 C 
ATOM     40  O   ARG     5      -2.677   6.448   8.185  1.00  0.00    -0.270 OA
ATOM     41  N   PRO     6      -1.012   7.232   9.493  1.00  0.00    -0.312 N 
ATOM     42  CA  PRO     6      -1.524   8.614   9.628  1.00  0.00     0.165 C 
ATOM     43  CD  PRO     6       0.118   7.018  10.423  1.00  0.00     0.105 C 
ATOM     44  CB  PRO     6      -0.487   9.333  10.492  1.00  0.00     0.034 C 
ATOM     45  CG  PRO     6       0.059   8.217  11.370  1.00  0.00     0.027 C 
BRANCH  42  46
ATOM     46  C   PRO     6      -1.666   9.296   8.258  1.00  0.00     0.272 C 
ATOM     47  N   SER     7      -2.715  10.073   8.023  1.00  0.00    -0.226 NA
ATOM     48  O   PRO     6      -0.867   9.037   7.353  1.00  0.00    -0.269 OA
BRANCH  47  49
ATOM     49  CA  SER     7      -3.826  10.371   8.959  1.00  0.00     0.219 C 
BRANCH  49  50
ATOM     50  C   SER     7      -4.726   9.145   9.194  1.00  0.00     0.277 C 
ATOM     51  O   SER     7      -4.726   8.603  10.294  1.00  0.00    -0.268 OA
ATOM     52  N   GLY     8      -5.624   8.899   8.250  1.00  0.00    -0.226 NA
BRANCH  52  53
ATOM     53  CA  GLY     8      -6.418   7.643   8.228  1.00  0.00     0.218 C 
BRANCH  53  54
ATOM     54  C   GLY     8      -7.929   7.733   8.507  1.00  0.00     0.277 C 
ATOM     55  N   GLY     9      -8.422   6.943   9.473  1.00  0.00    -0.226 NA
ATOM     56  O   GLY     8      -8.620   8.529   7.892  1.00  0.00    -0.268 OA
BRANCH  55  57
ATOM     57  CA  GLY     9      -9.856   6.896   9.822  1.00  0.00     0.218 C 
BRANCH  57  58
ATOM     58  C   GLY     9     -10.377   5.440   9.877  1.00  0.00     0.277 C 
ATOM     59  O   GLY     9      -9.587   4.527  10.085  1.00  0.00    -0.268 OA
ATOM     60  N   CYS    10     -11.621   5.129   9.544  1.00  0.00    -0.228 NA
BRANCH  60  61
ATOM     61  CA  CYS    10     -12.685   6.035   9.045  1.00  0.00     0.198 C 
BRANCH  61  62
ATOM     62  CB  CYS    10     -12.451   6.468   7.593  1.00  0.00     0.103 C 
ATOM     63  SG  CYS    10     -12.120   8.234   7.270  1.00  0.00    -0.080 SA
ENDBRANCH  61  62
BRANCH  61  64
ATOM     64  C   CYS    10     -14.083   5.413   9.037  1.00  0.00     0.275 C 
ATOM     65  O   CYS    10     -15.068   6.149   9.020  1.00  0.00    -0.268 OA
ATOM     66  N   GLY    11     -14.093   4.126   8.732  1.00  0.00    -0.225 NA
BRANCH  66  67
ATOM     67  CA  GLY    11     -15.082   3.206   9.312  1.00  0.00     0.226 C 
BRANCH  67  68
ATOM     68  C   GLY    11     -15.368   2.185   8.200  1.00  0.00     0.211 C 
ATOM     69  O2  GLY    11     -14.535   2.154   7.269  1.00  0.00    -0.646 OA
ATOM     70  O1  GLY    11     -16.153   1.254   8.493  1.00  0.00    -0.646 OA
ENDBRANCH  67  68
ENDBRANCH  66  67
ENDBRANCH  61  64
ENDBRANCH  60  61
ENDBRANCH  57  58
ENDBRANCH  55  57
ENDBRANCH  53  54
ENDBRANCH  52  53
ENDBRANCH  49  50
BRANCH  49  71
ATOM     71  CB  SER     7      -4.719  11.499   8.436  1.00  0.00     0.216 C 
ATOM     72  OG  SER     7      -5.519  12.018   9.498  1.00  0.00    -0.218 OA
ENDBRANCH  49  71
ENDBRANCH  47  49
ENDBRANCH  42  46
ENDBRANCH   1  39
TORSDOF 33
ENDMDL
MODEL 4
REMARK VINA RESULT:      -3.2     18.633     23.375
REMARK WARNING: 32 MAX_TORS EXCEEDED!!!
REMARK  33 active torsions:
REMARK  status: ('A' for Active; 'I' for Inactive)
REMARK    1  A    between atoms: CA_2  and  C_8 
REMARK    2  A    between atoms: CA_2  and  CB_3 
REMARK    3  A    between atoms: CB_3  and  CG_4 
REMARK    4  A    between atoms: CG_4  and  CD_5 
REMARK       I    between atoms: C_8  and  N_10 
REMARK    5  A    between atoms: N_10  and  CA_11 
REMARK    6  A    between atoms: CA_11  and  C_12 
REMARK       I    between atoms: C_12  and  N_14 
REMARK    7  A    between atoms: N_14  and  CA_15 
REMARK    8  A    between atoms: CA_15  and  C_20 
REMARK    9  A    between atoms: CA_15  and  CB_16 
REMARK   10  A    between atoms: CB_16  and  CG_17 
REMARK       I    between atoms: C_20  and  N_22 
REMARK   11  A    between atoms: N_22  and  CA_23 
REMARK   12  A    between atoms: CA_23  and  CB_24 
REMARK   13  A    between atoms: CA_23  and  C_28 
REMARK   14  A    between atoms: CB_24  and  CG_25 
REMARK       I    between atoms: C_28  and  N_30 
REMARK   15  A    between atoms: N_30  and  CA_31 
REMARK   16  A    between atoms: CA_31  and  CB_32 
REMARK   17  A    between atoms: CA_31  and  C_39 
REMARK   18  A    between atoms: CB_32  and  CG_33 
REMARK   19  A    between atoms: CG_33  and  CD_34 
REMARK   20  A    between atoms: CD_34  and  NE_35 
REMARK       I    between atoms: C_39  and  N_41 
REMARK   21  A    between atoms: CA_42  and  C_46 
REMARK       I    between atoms: C_46  and  N_48 
REMARK   22  A    between atoms: N_48  and  CA_49 
REMARK   23  A    between atoms: CA_49  and  C_52 
REMARK   24  A    between atoms: CA_49  and  CB_50 
REMARK       I    between atoms: C_52  and  N_54 
REMARK   25  A    between atoms: N_54  and  CA_55 
REMARK   26  A    between atoms: CA_55  and  C_56 
REMARK       I    between atoms: C_56  and  N_58 
REMARK   27  A    between atoms: N_58  and  CA_59 
REMARK   28  A    between atoms: CA_59  and  C_60 
REMARK       I    between atoms: C_60  and  N_62 
REMARK   29  A    between atoms: N_62  and  CA_63 
REMARK   30  A    between atoms: CA_63  and  CB_64 
REMARK   31  A    between atoms: CA_63  and  C_66 
REMARK       I    between atoms: C_66  and  N_68 
REMARK   32  A    between atoms: N_68  and  CA_69 
REMARK   33  A    between atoms: CA_69  and  C_70 
ROOT
ATOM      1  CA  ARG     5      -4.025 -18.165  10.208  1.00  0.00     0.185 C 
ENDROOT
BRANCH   1   2
ATOM      2  N   ARG     5      -3.289 -18.743   9.069  1.00  0.00    -0.229 NA
ATOM      3  C   ASN     4      -2.608 -19.879   9.086  1.00  0.00     0.275 C 
ATOM      4  O   ASN     4      -2.287 -20.474  10.109  1.00  0.00    -0.268 OA
BRANCH   3   5
ATOM      5  CA  ASN     4      -1.964 -20.207   7.724  1.00  0.00     0.196 C 
BRANCH   5   6
ATOM      6  N   ASN     4      -0.510 -19.943   7.756  1.00  0.00    -0.228 NA
ATOM      7  C   LEU     3       0.189 -19.849   8.884  1.00  0.00     0.274 C 
ATOM      8  O   LEU     3      -0.280 -19.978  10.019  1.00  0.00    -0.268 OA
BRANCH   7   9
ATOM      9  CA  LEU     3       1.689 -19.625   8.696  1.00  0.00     0.186 C 
BRANCH   9  10
ATOM     10  N   LEU     3       2.015 -18.206   8.962  1.00  0.00    -0.229 NA
ATOM     11  C   GLY     2       3.186 -17.656   8.627  1.00  0.00     0.277 C 
ATOM     12  O   GLY     2       4.021 -18.226   7.941  1.00  0.00    -0.268 OA
BRANCH  11  13
ATOM     13  CA  GLY     2       3.372 -16.174   9.013  1.00  0.00     0.218 C 
BRANCH  13  14
ATOM     14  N   GLY     2       4.616 -15.491   8.585  1.00  0.00    -0.226 NA
ATOM     15  C   GLU     1       5.779 -15.668   9.223  1.00  0.00     0.289 C 
ATOM     16  O   GLU     1       5.902 -16.525  10.082  1.00  0.00    -0.268 OA
BRANCH  15  17
ATOM     17  CA  GLU     1       7.004 -14.819   8.791  1.00  0.00     0.381 C 
ATOM     18  N   GLU     1       7.555 -13.982   9.872  1.00  0.00     0.626 N 
BRANCH  17  19
ATOM     19  CB  GLU     1       8.077 -15.764   8.213  1.00  0.00     0.060 C 
BRANCH  19  20
ATOM     20  CG  GLU     1       8.651 -16.882   9.096  1.00  0.00     0.100 C 
BRANCH  20  21
ATOM     21  CD  GLU     1       9.551 -17.853   8.317  1.00  0.00     0.185 C 
ATOM     22  OE1 GLU     1       9.684 -19.012   8.749  1.00  0.00    -0.647 OA
ATOM     23  OE2 GLU     1      10.136 -17.434   7.302  1.00  0.00    -0.647 OA
ENDBRANCH  20  21
ENDBRANCH  19  20
ENDBRANCH  17  19
ENDBRANCH  15  17
ENDBRANCH  13  14
ENDBRANCH  11  13
ENDBRANCH   9  10
BRANCH   9  24
ATOM     24  CB  LEU     3       2.449 -20.542   9.662  1.00  0.00     0.034 C 
BRANCH  24  25
ATOM     25  CG  LEU     3       2.451 -22.023   9.243  1.00  0.00     0.002 C 
ATOM     26  CD1 LEU     3       3.674 -22.303   8.371  1.00  0.00     0.000 C 
ATOM     27  CD2 LEU     3       2.457 -22.946  10.466  1.00  0.00     0.000 C 
ENDBRANCH  24  25
ENDBRANCH   9  24
ENDBRANCH   7   9
ENDBRANCH   5   6
BRANCH   5  28
ATOM     28  CB  ASN     4      -2.230 -21.666   7.312  1.00  0.00     0.126 C 
BRANCH  28  29
ATOM     29  CG  ASN     4      -3.630 -22.175   7.705  1.00  0.00     0.276 C 
ATOM     30  ND2 ASN     4      -4.644 -21.462   7.291  1.00  0.00    -0.107 N 
ATOM     31  OD1 ASN     4      -3.831 -23.212   8.309  1.00  0.00    -0.269 OA
ENDBRANCH  28  29
ENDBRANCH   5  28
ENDBRANCH   3   5
ENDBRANCH   1   2
BRANCH   1  32
ATOM     32  CB  ARG     5      -3.087 -17.327  11.085  1.00  0.00     0.036 C 
BRANCH  32  33
ATOM     33  CG  ARG     5      -1.840 -16.827  10.355  1.00  0.00     0.029 C 
BRANCH  33  34
ATOM     34  CD  ARG     5      -1.373 -15.519  10.986  1.00  0.00     0.145 C 
BRANCH  34  35
ATOM     35  NE  ARG     5      -2.444 -14.493  10.992  1.00  0.00    -0.083 NA
ATOM     36  CZ  ARG     5      -2.234 -13.169  10.972  1.00  0.00     0.782 C 
ATOM     37  NH2 ARG     5      -3.240 -12.311  10.732  1.00  0.00     0.063 N 
ATOM     38  NH1 ARG     5      -1.013 -12.662  11.062  1.00  0.00     0.063 N 
ENDBRANCH  34  35
ENDBRANCH  33  34
ENDBRANCH  32  33
ENDBRANCH   1  32
BRANCH   1  39
ATOM     39  C   ARG     5      -5.170 -17.277   9.685  1.00  0.00     0.256 C 
ATOM     40  O   ARG     5      -4.931 -16.125   9.313  1.00  0.00    -0.270 OA
ATOM     41  N   PRO     6      -6.374 -17.844   9.562  1.00  0.00    -0.312 N 
ATOM     42  CA  PRO     6      -7.587 -17.128   9.108  1.00  0.00     0.165 C 
ATOM     43  CD  PRO     6      -6.660 -19.289   9.698  1.00  0.00     0.105 C 
ATOM     44  CB  PRO     6      -8.716 -18.153   9.228  1.00  0.00     0.034 C 
ATOM     45  CG  PRO     6      -8.002 -19.475   8.988  1.00  0.00     0.027 C 
BRANCH  42  46
ATOM     46  C   PRO     6      -7.871 -15.894   9.982  1.00  0.00     0.272 C 
ATOM     47  N   SER     7      -8.042 -14.713   9.405  1.00  0.00    -0.226 NA
ATOM     48  O   PRO     6      -7.832 -15.987  11.212  1.00  0.00    -0.269 OA
BRANCH  47  49
ATOM     49  CA  SER     7      -7.982 -14.417   7.953  1.00  0.00     0.219 C 
BRANCH  49  50
ATOM     50  C   SER     7      -7.599 -12.952   7.679  1.00  0.00     0.277 C 
ATOM     51  O   SER     7      -8.454 -12.175   7.268  1.00  0.00    -0.268 OA
ATOM     52  N   GLY     8      -6.414 -12.570   8.135  1.00  0.00    -0.226 NA
BRANCH  52  53
ATOM     53  CA  GLY     8      -5.815 -11.259   7.770  1.00  0.00     0.218 C 
BRANCH  53  54
ATOM     54  C   GLY     8      -6.111 -10.049   8.673  1.00  0.00     0.277 C 
ATOM     55  N   GLY     9      -7.219  -9.342   8.406  1.00  0.00    -0.226 NA
ATOM     56  O   GLY     8      -5.377  -9.791   9.613  1.00  0.00    -0.268 OA
BRANCH  55  57
ATOM     57  CA  GLY     9      -7.607  -8.135   9.164  1.00  0.00     0.218 C 
BRANCH  57  58
ATOM     58  C   GLY     9      -7.607  -6.877   8.263  1.00  0.00     0.277 C 
ATOM     59  O   GLY     9      -6.680  -6.698   7.482  1.00  0.00    -0.268 OA
ATOM     60  N   CYS    10      -8.489  -5.901   8.425  1.00  0.00    -0.228 NA
BRANCH  60  61
ATOM     61  CA  CYS    10      -9.555  -5.797   9.450  1.00  0.00     0.198 C 
BRANCH  61  62
ATOM     62  CB  CYS    10      -9.107  -5.001  10.682  1.00  0.00     0.103 C 
ATOM     63  SG  CYS    10      -7.827  -3.719  10.453  1.00  0.00    -0.080 SA
ENDBRANCH  61  62
BRANCH  61  64
ATOM     64  C   CYS    10     -10.816  -5.075   8.969  1.00  0.00     0.275 C 
ATOM     65  O   CYS    10     -11.764  -5.737   8.549  1.00  0.00    -0.268 OA
ATOM     66  N   GLY    11     -10.885  -3.809   9.347  1.00  0.00    -0.225 NA
BRANCH  66  67
ATOM     67  CA  GLY    11     -11.527  -2.789   8.505  1.00  0.00     0.226 C 
BRANCH  67  68
ATOM     68  C   GLY    11     -11.406  -1.485   9.308  1.00  0.00     0.211 C 
ATOM     69  O2  GLY    11     -10.239  -1.108   9.551  1.00  0.00    -0.646 OA
ATOM     70  O1  GLY    11     -12.416  -0.745   9.317  1.00  0.00    -0.646 OA
ENDBRANCH  67  68
ENDBRANCH  66  67
ENDBRANCH  61  64
ENDBRANCH  60  61
ENDBRANCH  57  58
ENDBRANCH  55  57
ENDBRANCH  53  54
ENDBRANCH  52  53
ENDBRANCH  49  50
BRANCH  49  71
ATOM     71  CB  SER     7      -9.326 -14.673   7.268  1.00  0.00     0.216 C 
ATOM     72  OG  SER     7     -10.394 -14.392   8.172  1.00  0.00    -0.218 OA
ENDBRANCH  49  71
ENDBRANCH  47  49
ENDBRANCH  42  46
ENDBRANCH   1  39
TORSDOF 33
ENDMDL
MODEL 5
REMARK VINA RESULT:      -2.9     24.223     30.718
REMARK WARNING: 32 MAX_TORS EXCEEDED!!!
REMARK  33 active torsions:
REMARK  status: ('A' for Active; 'I' for Inactive)
REMARK    1  A    between atoms: CA_2  and  C_8 
REMARK    2  A    between atoms: CA_2  and  CB_3 
REMARK    3  A    between atoms: CB_3  and  CG_4 
REMARK    4  A    between atoms: CG_4  and  CD_5 
REMARK       I    between atoms: C_8  and  N_10 
REMARK    5  A    between atoms: N_10  and  CA_11 
REMARK    6  A    between atoms: CA_11  and  C_12 
REMARK       I    between atoms: C_12  and  N_14 
REMARK    7  A    between atoms: N_14  and  CA_15 
REMARK    8  A    between atoms: CA_15  and  C_20 
REMARK    9  A    between atoms: CA_15  and  CB_16 
REMARK   10  A    between atoms: CB_16  and  CG_17 
REMARK       I    between atoms: C_20  and  N_22 
REMARK   11  A    between atoms: N_22  and  CA_23 
REMARK   12  A    between atoms: CA_23  and  CB_24 
REMARK   13  A    between atoms: CA_23  and  C_28 
REMARK   14  A    between atoms: CB_24  and  CG_25 
REMARK       I    between atoms: C_28  and  N_30 
REMARK   15  A    between atoms: N_30  and  CA_31 
REMARK   16  A    between atoms: CA_31  and  CB_32 
REMARK   17  A    between atoms: CA_31  and  C_39 
REMARK   18  A    between atoms: CB_32  and  CG_33 
REMARK   19  A    between atoms: CG_33  and  CD_34 
REMARK   20  A    between atoms: CD_34  and  NE_35 
REMARK       I    between atoms: C_39  and  N_41 
REMARK   21  A    between atoms: CA_42  and  C_46 
REMARK       I    between atoms: C_46  and  N_48 
REMARK   22  A    between atoms: N_48  and  CA_49 
REMARK   23  A    between atoms: CA_49  and  C_52 
REMARK   24  A    between atoms: CA_49  and  CB_50 
REMARK       I    between atoms: C_52  and  N_54 
REMARK   25  A    between atoms: N_54  and  CA_55 
REMARK   26  A    between atoms: CA_55  and  C_56 
REMARK       I    between atoms: C_56  and  N_58 
REMARK   27  A    between atoms: N_58  and  CA_59 
REMARK   28  A    between atoms: CA_59  and  C_60 
REMARK       I    between atoms: C_60  and  N_62 
REMARK   29  A    between atoms: N_62  and  CA_63 
REMARK   30  A    between atoms: CA_63  and  CB_64 
REMARK   31  A    between atoms: CA_63  and  C_66 
REMARK       I    between atoms: C_66  and  N_68 
REMARK   32  A    between atoms: N_68  and  CA_69 
REMARK   33  A    between atoms: CA_69  and  C_70 
ROOT
ATOM      1  CA  ARG     5      -6.495 -24.099   9.861  1.00  0.00     0.185 C 
ENDROOT
BRANCH   1   2
ATOM      2  N   ARG     5      -6.550 -22.818   9.133  1.00  0.00    -0.229 NA
ATOM      3  C   ASN     4      -7.000 -21.672   9.620  1.00  0.00     0.275 C 
ATOM      4  O   ASN     4      -7.663 -21.572  10.647  1.00  0.00    -0.268 OA
BRANCH   3   5
ATOM      5  CA  ASN     4      -6.907 -20.516   8.603  1.00  0.00     0.196 C 
BRANCH   5   6
ATOM      6  N   ASN     4      -7.484 -19.277   9.167  1.00  0.00    -0.228 NA
ATOM      7  C   LEU     3      -8.375 -18.528   8.521  1.00  0.00     0.274 C 
ATOM      8  O   LEU     3      -8.826 -18.776   7.399  1.00  0.00    -0.268 OA
BRANCH   7   9
ATOM      9  CA  LEU     3      -8.886 -17.318   9.302  1.00  0.00     0.186 C 
BRANCH   9  10
ATOM     10  N   LEU     3      -8.034 -16.144   9.010  1.00  0.00    -0.229 NA
ATOM     11  C   GLY     2      -7.294 -15.535   9.942  1.00  0.00     0.277 C 
ATOM     12  O   GLY     2      -7.135 -15.982  11.068  1.00  0.00    -0.268 OA
BRANCH  11  13
ATOM     13  CA  GLY     2      -6.494 -14.302   9.471  1.00  0.00     0.218 C 
BRANCH  13  14
ATOM     14  N   GLY     2      -5.066 -14.206   9.860  1.00  0.00    -0.226 NA
ATOM     15  C   GLU     1      -4.087 -14.128   8.951  1.00  0.00     0.289 C 
ATOM     16  O   GLU     1      -4.336 -13.965   7.769  1.00  0.00    -0.268 OA
BRANCH  15  17
ATOM     17  CA  GLU     1      -2.614 -14.160   9.438  1.00  0.00     0.381 C 
ATOM     18  N   GLU     1      -2.291 -13.109  10.418  1.00  0.00     0.626 N 
BRANCH  17  19
ATOM     19  CB  GLU     1      -2.314 -15.564  10.003  1.00  0.00     0.060 C 
BRANCH  19  20
ATOM     20  CG  GLU     1      -1.043 -16.301   9.555  1.00  0.00     0.100 C 
BRANCH  20  21
ATOM     21  CD  GLU     1      -1.264 -17.810   9.367  1.00  0.00     0.185 C 
ATOM     22  OE1 GLU     1      -1.097 -18.558  10.346  1.00  0.00    -0.647 OA
ATOM     23  OE2 GLU     1      -1.572 -18.227   8.236  1.00  0.00    -0.647 OA
ENDBRANCH  20  21
ENDBRANCH  19  20
ENDBRANCH  17  19
ENDBRANCH  15  17
ENDBRANCH  13  14
ENDBRANCH  11  13
ENDBRANCH   9  10
BRANCH   9  24
ATOM     24  CB  LEU     3     -10.338 -17.043   8.891  1.00  0.00     0.034 C 
BRANCH  24  25
ATOM     25  CG  LEU     3     -11.368 -17.923   9.621  1.00  0.00     0.002 C 
ATOM     26  CD1 LEU     3     -12.362 -17.033  10.364  1.00  0.00     0.000 C 
ATOM     27  CD2 LEU     3     -12.112 -18.836   8.640  1.00  0.00     0.000 C 
ENDBRANCH  24  25
ENDBRANCH   9  24
ENDBRANCH   7   9
ENDBRANCH   5   6
BRANCH   5  28
ATOM     28  CB  ASN     4      -5.454 -20.271   8.159  1.00  0.00     0.126 C 
BRANCH  28  29
ATOM     29  CG  ASN     4      -4.478 -20.051   9.330  1.00  0.00     0.276 C 
ATOM     30  ND2 ASN     4      -3.451 -20.857   9.388  1.00  0.00    -0.107 N 
ATOM     31  OD1 ASN     4      -4.581 -19.149  10.140  1.00  0.00    -0.269 OA
ENDBRANCH  28  29
ENDBRANCH   5  28
ENDBRANCH   3   5
ENDBRANCH   1   2
BRANCH   1  32
ATOM     32  CB  ARG     5      -6.662 -25.275   8.893  1.00  0.00     0.036 C 
BRANCH  32  33
ATOM     33  CG  ARG     5      -7.742 -25.056   7.833  1.00  0.00     0.029 C 
BRANCH  33  34
ATOM     34  CD  ARG     5      -9.114 -25.054   8.498  1.00  0.00     0.145 C 
BRANCH  34  35
ATOM     35  NE  ARG     5     -10.102 -24.258   7.730  1.00  0.00    -0.083 NA
ATOM     36  CZ  ARG     5     -11.006 -23.431   8.274  1.00  0.00     0.782 C 
ATOM     37  NH2 ARG     5     -11.698 -22.564   7.516  1.00  0.00     0.063 N 
ATOM     38  NH1 ARG     5     -11.163 -23.347   9.587  1.00  0.00     0.063 N 
ENDBRANCH  34  35
ENDBRANCH  33  34
ENDBRANCH  32  33
ENDBRANCH   1  32
BRANCH   1  39
ATOM     39  C   ARG     5      -5.144 -24.220  10.591  1.00  0.00     0.256 C 
ATOM     40  O   ARG     5      -4.753 -23.297  11.312  1.00  0.00    -0.270 OA
ATOM     41  N   PRO     6      -4.495 -25.383  10.487  1.00  0.00    -0.312 N 
ATOM     42  CA  PRO     6      -3.173 -25.655  11.095  1.00  0.00     0.165 C 
ATOM     43  CD  PRO     6      -5.046 -26.623   9.897  1.00  0.00     0.105 C 
ATOM     44  CB  PRO     6      -2.805 -27.061  10.619  1.00  0.00     0.034 C 
ATOM     45  CG  PRO     6      -4.161 -27.735  10.463  1.00  0.00     0.027 C 
BRANCH  42  46
ATOM     46  C   PRO     6      -2.123 -24.629  10.638  1.00  0.00     0.272 C 
ATOM     47  N   SER     7      -1.501 -24.805   9.480  1.00  0.00    -0.226 NA
ATOM     48  O   PRO     6      -1.788 -23.710  11.392  1.00  0.00    -0.269 OA
BRANCH  47  49
ATOM     49  CA  SER     7      -1.695 -25.927   8.530  1.00  0.00     0.219 C 
BRANCH  49  50
ATOM     50  C   SER     7      -0.357 -26.542   8.085  1.00  0.00     0.277 C 
ATOM     51  O   SER     7      -0.274 -27.757   7.936  1.00  0.00    -0.268 OA
ATOM     52  N   GLY     8       0.560 -25.683   7.661  1.00  0.00    -0.226 NA
BRANCH  52  53
ATOM     53  CA  GLY     8       1.964 -26.096   7.399  1.00  0.00     0.218 C 
BRANCH  53  54
ATOM     54  C   GLY     8       3.076 -25.047   7.579  1.00  0.00     0.277 C 
ATOM     55  N   GLY     9       2.719 -23.858   8.087  1.00  0.00    -0.226 NA
ATOM     56  O   GLY     8       4.231 -25.324   7.303  1.00  0.00    -0.268 OA
BRANCH  55  57
ATOM     57  CA  GLY     9       3.671 -22.745   8.278  1.00  0.00     0.218 C 
BRANCH  57  58
ATOM     58  C   GLY     9       2.944 -21.379   8.314  1.00  0.00     0.277 C 
ATOM     59  O   GLY     9       1.873 -21.255   7.735  1.00  0.00    -0.268 OA
ATOM     60  N   CYS    10       3.522 -20.293   8.808  1.00  0.00    -0.228 NA
BRANCH  60  61
ATOM     61  CA  CYS    10       4.895 -20.158   9.353  1.00  0.00     0.198 C 
BRANCH  61  62
ATOM     62  CB  CYS    10       5.969 -20.277   8.266  1.00  0.00     0.103 C 
ATOM     63  SG  CYS    10       7.702 -20.499   8.796  1.00  0.00    -0.080 SA
ENDBRANCH  61  62
BRANCH  61  64
ATOM     64  C   CYS    10       5.173 -18.808  10.018  1.00  0.00     0.275 C 
ATOM     65  O   CYS    10       5.615 -18.783  11.165  1.00  0.00    -0.268 OA
ATOM     66  N   GLY    11       5.204 -17.791   9.172  1.00  0.00    -0.225 NA
BRANCH  66  67
ATOM     67  CA  GLY    11       4.755 -16.449   9.566  1.00  0.00     0.226 C 
BRANCH  67  68
ATOM     68  C   GLY    11       5.671 -15.486   8.795  1.00  0.00     0.211 C 
ATOM     69  O2  GLY    11       5.898 -14.392   9.356  1.00  0.00    -0.646 OA
ATOM     70  O1  GLY    11       6.386 -15.998   7.903  1.00  0.00    -0.646 OA
ENDBRANCH  67  68
ENDBRANCH  66  67
ENDBRANCH  61  64
ENDBRANCH  60  61
ENDBRANCH  57  58
ENDBRANCH  55  57
ENDBRANCH  53  54
ENDBRANCH  52  53
ENDBRANCH  49  50
BRANCH  49  71
ATOM     71  CB  SER     7      -2.434 -25.478   7.268  1.00  0.00     0.216 C 
ATOM     72  OG  SER     7      -3.017 -24.191   7.477  1.00  0.00    -0.218 OA
ENDBRANCH  49  71
ENDBRANCH  47  49
ENDBRANCH  42  46
ENDBRANCH   1  39
TORSDOF 33
ENDMDL
MODEL 6
REMARK VINA RESULT:      -2.7      2.825      4.702
REMARK WARNING: 32 MAX_TORS EXCEEDED!!!
REMARK  33 active torsions:
REMARK  status: ('A' for Active; 'I' for Inactive)
REMARK    1  A    between atoms: CA_2  and  C_8 
REMARK    2  A    between atoms: CA_2  and  CB_3 
REMARK    3  A    between atoms: CB_3  and  CG_4 
REMARK    4  A    between atoms: CG_4  and  CD_5 
REMARK       I    between atoms: C_8  and  N_10 
REMARK    5  A    between atoms: N_10  and  CA_11 
REMARK    6  A    between atoms: CA_11  and  C_12 
REMARK       I    between atoms: C_12  and  N_14 
REMARK    7  A    between atoms: N_14  and  CA_15 
REMARK    8  A    between atoms: CA_15  and  C_20 
REMARK    9  A    between atoms: CA_15  and  CB_16 
REMARK   10  A    between atoms: CB_16  and  CG_17 
REMARK       I    between atoms: C_20  and  N_22 
REMARK   11  A    between atoms: N_22  and  CA_23 
REMARK   12  A    between atoms: CA_23  and  CB_24 
REMARK   13  A    between atoms: CA_23  and  C_28 
REMARK   14  A    between atoms: CB_24  and  CG_25 
REMARK       I    between atoms: C_28  and  N_30 
REMARK   15  A    between atoms: N_30  and  CA_31 
REMARK   16  A    between atoms: CA_31  and  CB_32 
REMARK   17  A    between atoms: CA_31  and  C_39 
REMARK   18  A    between atoms: CB_32  and  CG_33 
REMARK   19  A    between atoms: CG_33  and  CD_34 
REMARK   20  A    between atoms: CD_34  and  NE_35 
REMARK       I    between atoms: C_39  and  N_41 
REMARK   21  A    between atoms: CA_42  and  C_46 
REMARK       I    between atoms: C_46  and  N_48 
REMARK   22  A    between atoms: N_48  and  CA_49 
REMARK   23  A    between atoms: CA_49  and  C_52 
REMARK   24  A    between atoms: CA_49  and  CB_50 
REMARK       I    between atoms: C_52  and  N_54 
REMARK   25  A    between atoms: N_54  and  CA_55 
REMARK   26  A    between atoms: CA_55  and  C_56 
REMARK       I    between atoms: C_56  and  N_58 
REMARK   27  A    between atoms: N_58  and  CA_59 
REMARK   28  A    between atoms: CA_59  and  C_60 
REMARK       I    between atoms: C_60  and  N_62 
REMARK   29  A    between atoms: N_62  and  CA_63 
REMARK   30  A    between atoms: CA_63  and  CB_64 
REMARK   31  A    between atoms: CA_63  and  C_66 
REMARK       I    between atoms: C_66  and  N_68 
REMARK   32  A    between atoms: N_68  and  CA_69 
REMARK   33  A    between atoms: CA_69  and  C_70 
ROOT
ATOM      1  CA  ARG     5      -1.133   4.967   8.671  1.00  0.00     0.185 C 
ENDROOT
BRANCH   1   2
ATOM      2  N   ARG     5       0.229   5.113   8.125  1.00  0.00    -0.229 NA
ATOM      3  C   ASN     4       1.329   4.588   8.643  1.00  0.00     0.275 C 
ATOM      4  O   ASN     4       1.403   4.123   9.776  1.00  0.00    -0.268 OA
BRANCH   3   5
ATOM      5  CA  ASN     4       2.591   4.918   7.821  1.00  0.00     0.196 C 
BRANCH   5   6
ATOM      6  N   ASN     4       3.558   5.685   8.634  1.00  0.00    -0.228 NA
ATOM      7  C   LEU     3       3.720   7.001   8.526  1.00  0.00     0.274 C 
ATOM      8  O   LEU     3       3.088   7.730   7.755  1.00  0.00    -0.268 OA
BRANCH   7   9
ATOM      9  CA  LEU     3       4.732   7.608   9.497  1.00  0.00     0.186 C 
BRANCH   9  10
ATOM     10  N   LEU     3       6.086   7.097   9.185  1.00  0.00    -0.229 NA
ATOM     11  C   GLY     2       7.201   7.663   9.655  1.00  0.00     0.277 C 
ATOM     12  O   GLY     2       7.199   8.546  10.500  1.00  0.00    -0.268 OA
BRANCH  11  13
ATOM     13  CA  GLY     2       8.529   7.022   9.199  1.00  0.00     0.218 C 
BRANCH  13  14
ATOM     14  N   GLY     2       8.810   5.627   9.615  1.00  0.00    -0.226 NA
ATOM     15  C   GLU     1       9.637   4.834   8.924  1.00  0.00     0.289 C 
ATOM     16  O   GLU     1      10.323   5.275   8.017  1.00  0.00    -0.268 OA
BRANCH  15  17
ATOM     17  CA  GLU     1       9.778   3.349   9.352  1.00  0.00     0.381 C 
ATOM     18  N   GLU     1      10.331   3.173  10.706  1.00  0.00     0.626 N 
BRANCH  17  19
ATOM     19  CB  GLU     1       8.401   2.666   9.217  1.00  0.00     0.060 C 
BRANCH  19  20
ATOM     20  CG  GLU     1       7.988   1.593  10.236  1.00  0.00     0.100 C 
BRANCH  20  21
ATOM     21  CD  GLU     1       8.263   0.165   9.742  1.00  0.00     0.185 C 
ATOM     22  OE1 GLU     1       9.359  -0.074   9.203  1.00  0.00    -0.647 OA
ATOM     23  OE2 GLU     1       7.368  -0.688   9.870  1.00  0.00    -0.647 OA
ENDBRANCH  20  21
ENDBRANCH  19  20
ENDBRANCH  17  19
ENDBRANCH  15  17
ENDBRANCH  13  14
ENDBRANCH  11  13
ENDBRANCH   9  10
BRANCH   9  24
ATOM     24  CB  LEU     3       4.691   9.135   9.361  1.00  0.00     0.034 C 
BRANCH  24  25
ATOM     25  CG  LEU     3       3.464   9.785  10.026  1.00  0.00     0.002 C 
ATOM     26  CD1 LEU     3       3.226   9.144  11.392  1.00  0.00     0.000 C 
ATOM     27  CD2 LEU     3       3.654  11.298  10.183  1.00  0.00     0.000 C 
ENDBRANCH  24  25
ENDBRANCH   9  24
ENDBRANCH   7   9
ENDBRANCH   5   6
BRANCH   5  28
ATOM     28  CB  ASN     4       3.253   3.645   7.268  1.00  0.00     0.126 C 
BRANCH  28  29
ATOM     29  CG  ASN     4       4.658   3.378   7.843  1.00  0.00     0.276 C 
ATOM     30  ND2 ASN     4       4.782   2.325   8.607  1.00  0.00    -0.107 N 
ATOM     31  OD1 ASN     4       5.639   4.044   7.574  1.00  0.00    -0.269 OA
ENDBRANCH  28  29
ENDBRANCH   5  28
ENDBRANCH   3   5
ENDBRANCH   1   2
BRANCH   1  32
ATOM     32  CB  ARG     5      -1.087   4.353  10.075  1.00  0.00     0.036 C 
BRANCH  32  33
ATOM     33  CG  ARG     5      -1.529   2.890  10.126  1.00  0.00     0.029 C 
BRANCH  33  34
ATOM     34  CD  ARG     5      -3.024   2.823  10.422  1.00  0.00     0.145 C 
BRANCH  34  35
ATOM     35  NE  ARG     5      -3.808   2.421   9.229  1.00  0.00    -0.083 NA
ATOM     36  CZ  ARG     5      -4.391   1.224   9.064  1.00  0.00     0.782 C 
ATOM     37  NH2 ARG     5      -5.282   1.016   8.080  1.00  0.00     0.063 N 
ATOM     38  NH1 ARG     5      -4.208   0.242   9.934  1.00  0.00     0.063 N 
ENDBRANCH  34  35
ENDBRANCH  33  34
ENDBRANCH  32  33
ENDBRANCH   1  32
BRANCH   1  39
ATOM     39  C   ARG     5      -1.814   6.346   8.733  1.00  0.00     0.256 C 
ATOM     40  O   ARG     5      -2.908   6.515   8.186  1.00  0.00    -0.270 OA
ATOM     41  N   PRO     6      -1.223   7.286   9.477  1.00  0.00    -0.312 N 
ATOM     42  CA  PRO     6      -1.724   8.672   9.617  1.00  0.00     0.165 C 
ATOM     43  CD  PRO     6      -0.085   7.064  10.395  1.00  0.00     0.105 C 
ATOM     44  CB  PRO     6      -0.672   9.384  10.470  1.00  0.00     0.034 C 
ATOM     45  CG  PRO     6      -0.125   8.264  11.343  1.00  0.00     0.027 C 
BRANCH  42  46
ATOM     46  C   PRO     6      -1.875   9.356   8.248  1.00  0.00     0.272 C 
ATOM     47  N   SER     7      -2.774  10.319   8.097  1.00  0.00    -0.226 NA
ATOM     48  O   PRO     6      -1.240   8.938   7.276  1.00  0.00    -0.269 OA
BRANCH  47  49
ATOM     49  CA  SER     7      -3.702  10.837   9.131  1.00  0.00     0.219 C 
BRANCH  49  50
ATOM     50  C   SER     7      -4.778   9.803   9.508  1.00  0.00     0.277 C 
ATOM     51  O   SER     7      -4.783   9.328  10.639  1.00  0.00    -0.268 OA
ATOM     52  N   GLY     8      -5.778   9.671   8.648  1.00  0.00    -0.226 NA
BRANCH  52  53
ATOM     53  CA  GLY     8      -6.776   8.575   8.763  1.00  0.00     0.218 C 
BRANCH  53  54
ATOM     54  C   GLY     8      -8.256   8.956   8.942  1.00  0.00     0.277 C 
ATOM     55  N   GLY     9      -8.902   8.428   9.992  1.00  0.00    -0.226 NA
ATOM     56  O   GLY     8      -8.784   9.742   8.173  1.00  0.00    -0.268 OA
BRANCH  55  57
ATOM     57  CA  GLY     9     -10.333   8.675  10.266  1.00  0.00     0.218 C 
BRANCH  57  58
ATOM     58  C   GLY     9     -11.088   7.356  10.559  1.00  0.00     0.277 C 
ATOM     59  O   GLY     9     -10.471   6.399  11.008  1.00  0.00    -0.268 OA
ATOM     60  N   CYS    10     -12.346   7.174  10.185  1.00  0.00    -0.228 NA
BRANCH  60  61
ATOM     61  CA  CYS    10     -13.217   8.107   9.429  1.00  0.00     0.198 C 
BRANCH  61  62
ATOM     62  CB  CYS    10     -12.881   8.139   7.934  1.00  0.00     0.103 C 
ATOM     63  SG  CYS    10     -12.087   9.642   7.268  1.00  0.00    -0.080 SA
ENDBRANCH  61  62
BRANCH  61  64
ATOM     64  C   CYS    10     -14.705   7.751   9.478  1.00  0.00     0.275 C 
ATOM     65  O   CYS    10     -15.037   6.574   9.611  1.00  0.00    -0.268 OA
ATOM     66  N   GLY    11     -15.497   8.789   9.686  1.00  0.00    -0.225 NA
BRANCH  66  67
ATOM     67  CA  GLY    11     -16.844   8.859   9.101  1.00  0.00     0.226 C 
BRANCH  67  68
ATOM     68  C   GLY    11     -17.693   9.587  10.155  1.00  0.00     0.211 C 
ATOM     69  O2  GLY    11     -18.091  10.727   9.832  1.00  0.00    -0.646 OA
ATOM     70  O1  GLY    11     -18.211   8.868  11.040  1.00  0.00    -0.646 OA
ENDBRANCH  67  68
ENDBRANCH  66  67
ENDBRANCH  61  64
ENDBRANCH  60  61
ENDBRANCH  57  58
ENDBRANCH  55  57
ENDBRANCH  53  54
ENDBRANCH  52  53
ENDBRANCH  49  50
BRANCH  49  71
ATOM     71  CB  SER     7      -4.427  12.098   8.659  1.00  0.00     0.216 C 
ATOM     72  OG  SER     7      -3.740  13.259   9.127  1.00  0.00    -0.218 OA
ENDBRANCH  49  71
ENDBRANCH  47  49
ENDBRANCH  42  46
ENDBRANCH   1  39
TORSDOF 33
ENDMDL
MODEL 7
REMARK VINA RESULT:      -2.3     16.163     25.105
REMARK WARNING: 32 MAX_TORS EXCEEDED!!!
REMARK  33 active torsions:
REMARK  status: ('A' for Active; 'I' for Inactive)
REMARK    1  A    between atoms: CA_2  and  C_8 
REMARK    2  A    between atoms: CA_2  and  CB_3 
REMARK    3  A    between atoms: CB_3  and  CG_4 
REMARK    4  A    between atoms: CG_4  and  CD_5 
REMARK       I    between atoms: C_8  and  N_10 
REMARK    5  A    between atoms: N_10  and  CA_11 
REMARK    6  A    between atoms: CA_11  and  C_12 
REMARK       I    between atoms: C_12  and  N_14 
REMARK    7  A    between atoms: N_14  and  CA_15 
REMARK    8  A    between atoms: CA_15  and  C_20 
REMARK    9  A    between atoms: CA_15  and  CB_16 
REMARK   10  A    between atoms: CB_16  and  CG_17 
REMARK       I    between atoms: C_20  and  N_22 
REMARK   11  A    between atoms: N_22  and  CA_23 
REMARK   12  A    between atoms: CA_23  and  CB_24 
REMARK   13  A    between atoms: CA_23  and  C_28 
REMARK   14  A    between atoms: CB_24  and  CG_25 
REMARK       I    between atoms: C_28  and  N_30 
REMARK   15  A    between atoms: N_30  and  CA_31 
REMARK   16  A    between atoms: CA_31  and  CB_32 
REMARK   17  A    between atoms: CA_31  and  C_39 
REMARK   18  A    between atoms: CB_32  and  CG_33 
REMARK   19  A    between atoms: CG_33  and  CD_34 
REMARK   20  A    between atoms: CD_34  and  NE_35 
REMARK       I    between atoms: C_39  and  N_41 
REMARK   21  A    between atoms: CA_42  and  C_46 
REMARK       I    between atoms: C_46  and  N_48 
REMARK   22  A    between atoms: N_48  and  CA_49 
REMARK   23  A    between atoms: CA_49  and  C_52 
REMARK   24  A    between atoms: CA_49  and  CB_50 
REMARK       I    between atoms: C_52  and  N_54 
REMARK   25  A    between atoms: N_54  and  CA_55 
REMARK   26  A    between atoms: CA_55  and  C_56 
REMARK       I    between atoms: C_56  and  N_58 
REMARK   27  A    between atoms: N_58  and  CA_59 
REMARK   28  A    between atoms: CA_59  and  C_60 
REMARK       I    between atoms: C_60  and  N_62 
REMARK   29  A    between atoms: N_62  and  CA_63 
REMARK   30  A    between atoms: CA_63  and  CB_64 
REMARK   31  A    between atoms: CA_63  and  C_66 
REMARK       I    between atoms: C_66  and  N_68 
REMARK   32  A    between atoms: N_68  and  CA_69 
REMARK   33  A    between atoms: CA_69  and  C_70 
ROOT
ATOM      1  CA  ARG     5     -10.076  -7.104   9.024  1.00  0.00     0.185 C 
ENDROOT
BRANCH   1   2
ATOM      2  N   ARG     5     -11.424  -7.469   8.548  1.00  0.00    -0.229 NA
ATOM      3  C   ASN     4     -12.480  -7.688   9.316  1.00  0.00     0.275 C 
ATOM      4  O   ASN     4     -12.426  -7.865  10.529  1.00  0.00    -0.268 OA
BRANCH   3   5
ATOM      5  CA  ASN     4     -13.744  -8.037   8.504  1.00  0.00     0.196 C 
BRANCH   5   6
ATOM      6  N   ASN     4     -14.387  -6.810   7.986  1.00  0.00    -0.228 NA
ATOM      7  C   LEU     3     -15.195  -6.046   8.717  1.00  0.00     0.274 C 
ATOM      8  O   LEU     3     -15.494  -6.259   9.896  1.00  0.00    -0.268 OA
BRANCH   7   9
ATOM      9  CA  LEU     3     -15.712  -4.794   8.010  1.00  0.00     0.186 C 
BRANCH   9  10
ATOM     10  N   LEU     3     -17.030  -5.078   7.401  1.00  0.00    -0.229 NA
ATOM     11  C   GLY     2     -18.158  -5.152   8.114  1.00  0.00     0.277 C 
ATOM     12  O   GLY     2     -18.226  -4.842   9.294  1.00  0.00    -0.268 OA
BRANCH  11  13
ATOM     13  CA  GLY     2     -19.438  -5.494   7.322  1.00  0.00     0.218 C 
BRANCH  13  14
ATOM     14  N   GLY     2     -20.063  -6.820   7.544  1.00  0.00    -0.226 NA
ATOM     15  C   GLU     1     -21.098  -6.987   8.375  1.00  0.00     0.289 C 
ATOM     16  O   GLU     1     -21.679  -6.029   8.858  1.00  0.00    -0.268 OA
BRANCH  15  17
ATOM     17  CA  GLU     1     -21.611  -8.425   8.650  1.00  0.00     0.381 C 
ATOM     18  N   GLU     1     -21.166  -9.413   7.651  1.00  0.00     0.626 N 
BRANCH  17  19
ATOM     19  CB  GLU     1     -21.182  -8.836  10.073  1.00  0.00     0.060 C 
BRANCH  19  20
ATOM     20  CG  GLU     1     -21.489 -10.256  10.573  1.00  0.00     0.100 C 
BRANCH  20  21
ATOM     21  CD  GLU     1     -22.914 -10.396  11.131  1.00  0.00     0.185 C 
ATOM     22  OE1 GLU     1     -23.344 -11.538  11.372  1.00  0.00    -0.647 OA
ATOM     23  OE2 GLU     1     -23.591  -9.365  11.291  1.00  0.00    -0.647 OA
ENDBRANCH  20  21
ENDBRANCH  19  20
ENDBRANCH  17  19
ENDBRANCH  15  17
ENDBRANCH  13  14
ENDBRANCH  11  13
ENDBRANCH   9  10
BRANCH   9  24
ATOM     24  CB  LEU     3     -15.828  -3.661   9.037  1.00  0.00     0.034 C 
BRANCH  24  25
ATOM     25  CG  LEU     3     -14.604  -2.727   9.073  1.00  0.00     0.002 C 
ATOM     26  CD1 LEU     3     -13.685  -3.137  10.222  1.00  0.00     0.000 C 
ATOM     27  CD2 LEU     3     -13.836  -2.768   7.747  1.00  0.00     0.000 C 
ENDBRANCH  24  25
ENDBRANCH   9  24
ENDBRANCH   7   9
ENDBRANCH   5   6
BRANCH   5  28
ATOM     28  CB  ASN     4     -13.423  -8.998   7.347  1.00  0.00     0.126 C 
BRANCH  28  29
ATOM     29  CG  ASN     4     -13.417 -10.483   7.758  1.00  0.00     0.276 C 
ATOM     30  ND2 ASN     4     -12.245 -11.050   7.866  1.00  0.00    -0.107 N 
ATOM     31  OD1 ASN     4     -14.419 -11.112   8.042  1.00  0.00    -0.269 OA
ENDBRANCH  28  29
ENDBRANCH   5  28
ENDBRANCH   3   5
ENDBRANCH   1   2
BRANCH   1  32
ATOM     32  CB  ARG     5     -10.166  -6.266  10.304  1.00  0.00     0.036 C 
BRANCH  32  33
ATOM     33  CG  ARG     5      -8.824  -6.065  11.008  1.00  0.00     0.029 C 
BRANCH  33  34
ATOM     34  CD  ARG     5      -8.396  -4.607  10.879  1.00  0.00     0.145 C 
BRANCH  34  35
ATOM     35  NE  ARG     5      -8.066  -4.248   9.479  1.00  0.00    -0.083 NA
ATOM     36  CZ  ARG     5      -8.601  -3.218   8.807  1.00  0.00     0.782 C 
ATOM     37  NH2 ARG     5      -8.081  -2.806   7.639  1.00  0.00     0.063 N 
ATOM     38  NH1 ARG     5      -9.581  -2.490   9.324  1.00  0.00     0.063 N 
ENDBRANCH  34  35
ENDBRANCH  33  34
ENDBRANCH  32  33
ENDBRANCH   1  32
BRANCH   1  39
ATOM     39  C   ARG     5      -9.264  -8.383   9.301  1.00  0.00     0.256 C 
ATOM     40  O   ARG     5      -9.809  -9.350   9.843  1.00  0.00    -0.270 OA
ATOM     41  N   PRO     6      -8.010  -8.423   8.840  1.00  0.00    -0.312 N 
ATOM     42  CA  PRO     6      -7.083  -9.558   9.048  1.00  0.00     0.165 C 
ATOM     43  CD  PRO     6      -7.401  -7.432   7.926  1.00  0.00     0.105 C 
ATOM     44  CB  PRO     6      -5.759  -9.099   8.436  1.00  0.00     0.034 C 
ATOM     45  CG  PRO     6      -6.204  -8.166   7.319  1.00  0.00     0.027 C 
BRANCH  42  46
ATOM     46  C   PRO     6      -6.915  -9.879  10.543  1.00  0.00     0.272 C 
ATOM     47  N   SER     7      -6.832 -11.144  10.931  1.00  0.00    -0.226 NA
ATOM     48  O   PRO     6      -6.966  -8.972  11.379  1.00  0.00    -0.269 OA
BRANCH  47  49
ATOM     49  CA  SER     7      -6.892 -12.345  10.064  1.00  0.00     0.219 C 
BRANCH  49  50
ATOM     50  C   SER     7      -5.509 -12.717   9.501  1.00  0.00     0.277 C 
ATOM     51  O   SER     7      -4.546 -12.000   9.750  1.00  0.00    -0.268 OA
ATOM     52  N   GLY     8      -5.408 -13.929   8.972  1.00  0.00    -0.226 NA
BRANCH  52  53
ATOM     53  CA  GLY     8      -4.209 -14.357   8.204  1.00  0.00     0.218 C 
BRANCH  53  54
ATOM     54  C   GLY     8      -3.128 -15.169   8.938  1.00  0.00     0.277 C 
ATOM     55  N   GLY     9      -3.374 -16.471   9.143  1.00  0.00    -0.226 NA
ATOM     56  O   GLY     8      -2.081 -14.637   9.269  1.00  0.00    -0.268 OA
BRANCH  55  57
ATOM     57  CA  GLY     9      -2.445 -17.363   9.867  1.00  0.00     0.218 C 
BRANCH  57  58
ATOM     58  C   GLY     9      -1.693 -18.305   8.897  1.00  0.00     0.277 C 
ATOM     59  O   GLY     9      -2.333 -19.077   8.195  1.00  0.00    -0.268 OA
ATOM     60  N   CYS    10      -0.373 -18.423   8.919  1.00  0.00    -0.228 NA
BRANCH  60  61
ATOM     61  CA  CYS    10       0.586 -17.758   9.835  1.00  0.00     0.198 C 
BRANCH  61  62
ATOM     62  CB  CYS    10       1.469 -18.762  10.586  1.00  0.00     0.103 C 
ATOM     63  SG  CYS    10       1.610 -20.452   9.908  1.00  0.00    -0.080 SA
ENDBRANCH  61  62
BRANCH  61  64
ATOM     64  C   CYS    10       1.578 -16.829   9.133  1.00  0.00     0.275 C 
ATOM     65  O   CYS    10       1.174 -15.773   8.650  1.00  0.00    -0.268 OA
ATOM     66  N   GLY    11       2.846 -17.109   9.389  1.00  0.00    -0.225 NA
BRANCH  66  67
ATOM     67  CA  GLY    11       3.899 -16.892   8.386  1.00  0.00     0.226 C 
BRANCH  67  68
ATOM     68  C   GLY    11       5.144 -17.576   8.971  1.00  0.00     0.211 C 
ATOM     69  O2  GLY    11       5.838 -18.221   8.154  1.00  0.00    -0.646 OA
ATOM     70  O1  GLY    11       5.551 -17.138  10.071  1.00  0.00    -0.646 OA
ENDBRANCH  67  68
ENDBRANCH  66  67
ENDBRANCH  61  64
ENDBRANCH  60  61
ENDBRANCH  57  58
ENDBRANCH  55  57
ENDBRANCH  53  54
ENDBRANCH  52  53
ENDBRANCH  49  50
BRANCH  49  71
ATOM     71  CB  SER     7      -7.828 -12.136   8.872  1.00  0.00     0.216 C 
ATOM     72  OG  SER     7      -9.146 -12.574   9.206  1.00  0.00    -0.218 OA
ENDBRANCH  49  71
ENDBRANCH  47  49
ENDBRANCH  42  46
ENDBRANCH   1  39
TORSDOF 33
ENDMDL
MODEL 8
REMARK VINA RESULT:      -2.3      1.816      2.019
REMARK WARNING: 32 MAX_TORS EXCEEDED!!!
REMARK  33 active torsions:
REMARK  status: ('A' for Active; 'I' for Inactive)
REMARK    1  A    between atoms: CA_2  and  C_8 
REMARK    2  A    between atoms: CA_2  and  CB_3 
REMARK    3  A    between atoms: CB_3  and  CG_4 
REMARK    4  A    between atoms: CG_4  and  CD_5 
REMARK       I    between atoms: C_8  and  N_10 
REMARK    5  A    between atoms: N_10  and  CA_11 
REMARK    6  A    between atoms: CA_11  and  C_12 
REMARK       I    between atoms: C_12  and  N_14 
REMARK    7  A    between atoms: N_14  and  CA_15 
REMARK    8  A    between atoms: CA_15  and  C_20 
REMARK    9  A    between atoms: CA_15  and  CB_16 
REMARK   10  A    between atoms: CB_16  and  CG_17 
REMARK       I    between atoms: C_20  and  N_22 
REMARK   11  A    between atoms: N_22  and  CA_23 
REMARK   12  A    between atoms: CA_23  and  CB_24 
REMARK   13  A    between atoms: CA_23  and  C_28 
REMARK   14  A    between atoms: CB_24  and  CG_25 
REMARK       I    between atoms: C_28  and  N_30 
REMARK   15  A    between atoms: N_30  and  CA_31 
REMARK   16  A    between atoms: CA_31  and  CB_32 
REMARK   17  A    between atoms: CA_31  and  C_39 
REMARK   18  A    between atoms: CB_32  and  CG_33 
REMARK   19  A    between atoms: CG_33  and  CD_34 
REMARK   20  A    between atoms: CD_34  and  NE_35 
REMARK       I    between atoms: C_39  and  N_41 
REMARK   21  A    between atoms: CA_42  and  C_46 
REMARK       I    between atoms: C_46  and  N_48 
REMARK   22  A    between atoms: N_48  and  CA_49 
REMARK   23  A    between atoms: CA_49  and  C_52 
REMARK   24  A    between atoms: CA_49  and  CB_50 
REMARK       I    between atoms: C_52  and  N_54 
REMARK   25  A    between atoms: N_54  and  CA_55 
REMARK   26  A    between atoms: CA_55  and  C_56 
REMARK       I    between atoms: C_56  and  N_58 
REMARK   27  A    between atoms: N_58  and  CA_59 
REMARK   28  A    between atoms: CA_59  and  C_60 
REMARK       I    between atoms: C_60  and  N_62 
REMARK   29  A    between atoms: N_62  and  CA_63 
REMARK   30  A    between atoms: CA_63  and  CB_64 
REMARK   31  A    between atoms: CA_63  and  C_66 
REMARK       I    between atoms: C_66  and  N_68 
REMARK   32  A    between atoms: N_68  and  CA_69 
REMARK   33  A    between atoms: CA_69  and  C_70 
ROOT
ATOM      1  CA  ARG     5       0.392   4.435   8.352  1.00  0.00     0.185 C 
ENDROOT
BRANCH   1   2
ATOM      2  N   ARG     5       1.772   4.738   7.930  1.00  0.00    -0.229 NA
ATOM      3  C   ASN     4       2.873   4.249   8.480  1.00  0.00     0.275 C 
ATOM      4  O   ASN     4       2.907   3.681   9.567  1.00  0.00    -0.268 OA
BRANCH   3   5
ATOM      5  CA  ASN     4       4.158   4.756   7.793  1.00  0.00     0.196 C 
BRANCH   5   6
ATOM      6  N   ASN     4       4.947   5.598   8.717  1.00  0.00    -0.228 NA
ATOM      7  C   LEU     3       4.772   6.912   8.835  1.00  0.00     0.274 C 
ATOM      8  O   LEU     3       3.941   7.575   8.206  1.00  0.00    -0.268 OA
BRANCH   7   9
ATOM      9  CA  LEU     3       5.653   7.587   9.886  1.00  0.00     0.186 C 
BRANCH   9  10
ATOM     10  N   LEU     3       7.024   7.035   9.812  1.00  0.00    -0.229 NA
ATOM     11  C   GLY     2       8.044   7.698   9.260  1.00  0.00     0.277 C 
ATOM     12  O   GLY     2       7.973   8.867   8.912  1.00  0.00    -0.268 OA
BRANCH  11  13
ATOM     13  CA  GLY     2       9.398   6.957   9.235  1.00  0.00     0.218 C 
BRANCH  13  14
ATOM     14  N   GLY     2      10.638   7.764   9.334  1.00  0.00    -0.226 NA
ATOM     15  C   GLU     1      10.868   8.588  10.363  1.00  0.00     0.289 C 
ATOM     16  O   GLU     1      10.146   8.585  11.347  1.00  0.00    -0.268 OA
BRANCH  15  17
ATOM     17  CA  GLU     1      12.129   9.492  10.328  1.00  0.00     0.381 C 
ATOM     18  N   GLU     1      13.138   9.063   9.344  1.00  0.00     0.626 N 
BRANCH  17  19
ATOM     19  CB  GLU     1      11.682  10.947  10.074  1.00  0.00     0.060 C 
BRANCH  19  20
ATOM     20  CG  GLU     1      12.189  12.063  10.999  1.00  0.00     0.100 C 
BRANCH  20  21
ATOM     21  CD  GLU     1      11.201  13.234  11.116  1.00  0.00     0.185 C 
ATOM     22  OE1 GLU     1      10.012  12.979  11.380  1.00  0.00    -0.647 OA
ATOM     23  OE2 GLU     1      11.621  14.386  10.913  1.00  0.00    -0.647 OA
ENDBRANCH  20  21
ENDBRANCH  19  20
ENDBRANCH  17  19
ENDBRANCH  15  17
ENDBRANCH  13  14
ENDBRANCH  11  13
ENDBRANCH   9  10
BRANCH   9  24
ATOM     24  CB  LEU     3       5.667   9.098   9.620  1.00  0.00     0.034 C 
BRANCH  24  25
ATOM     25  CG  LEU     3       4.850   9.916  10.636  1.00  0.00     0.002 C 
ATOM     26  CD1 LEU     3       5.751  10.962  11.289  1.00  0.00     0.000 C 
ATOM     27  CD2 LEU     3       3.654  10.599   9.964  1.00  0.00     0.000 C 
ENDBRANCH  24  25
ENDBRANCH   9  24
ENDBRANCH   7   9
ENDBRANCH   5   6
BRANCH   5  28
ATOM     28  CB  ASN     4       5.016   3.591   7.273  1.00  0.00     0.126 C 
BRANCH  28  29
ATOM     29  CG  ASN     4       6.345   3.414   8.031  1.00  0.00     0.276 C 
ATOM     30  ND2 ASN     4       7.337   4.174   7.649  1.00  0.00    -0.107 N 
ATOM     31  OD1 ASN     4       6.491   2.669   8.981  1.00  0.00    -0.269 OA
ENDBRANCH  28  29
ENDBRANCH   5  28
ENDBRANCH   3   5
ENDBRANCH   1   2
BRANCH   1  32
ATOM     32  CB  ARG     5       0.393   3.669   9.680  1.00  0.00     0.036 C 
BRANCH  32  33
ATOM     33  CG  ARG     5      -0.491   2.421   9.676  1.00  0.00     0.029 C 
BRANCH  33  34
ATOM     34  CD  ARG     5      -1.756   2.692  10.484  1.00  0.00     0.145 C 
BRANCH  34  35
ATOM     35  NE  ARG     5      -2.933   2.924   9.611  1.00  0.00    -0.083 NA
ATOM     36  CZ  ARG     5      -3.901   2.025   9.377  1.00  0.00     0.782 C 
ATOM     37  NH2 ARG     5      -5.050   2.383   8.782  1.00  0.00     0.063 N 
ATOM     38  NH1 ARG     5      -3.815   0.784   9.834  1.00  0.00     0.063 N 
ENDBRANCH  34  35
ENDBRANCH  33  34
ENDBRANCH  32  33
ENDBRANCH   1  32
BRANCH   1  39
ATOM     39  C   ARG     5      -0.398   5.747   8.514  1.00  0.00     0.256 C 
ATOM     40  O   ARG     5      -1.477   5.888   7.932  1.00  0.00    -0.270 OA
ATOM     41  N   PRO     6       0.085   6.648   9.374  1.00  0.00    -0.312 N 
ATOM     42  CA  PRO     6      -0.530   7.972   9.624  1.00  0.00     0.165 C 
ATOM     43  CD  PRO     6       1.196   6.420  10.324  1.00  0.00     0.105 C 
ATOM     44  CB  PRO     6       0.424   8.671  10.593  1.00  0.00     0.034 C 
ATOM     45  CG  PRO     6       1.020   7.512  11.380  1.00  0.00     0.027 C 
BRANCH  42  46
ATOM     46  C   PRO     6      -0.675   8.777   8.321  1.00  0.00     0.272 C 
ATOM     47  N   SER     7      -1.740   9.548   8.148  1.00  0.00    -0.226 NA
ATOM     48  O   PRO     6       0.138   8.622   7.405  1.00  0.00    -0.269 OA
BRANCH  47  49
ATOM     49  CA  SER     7      -2.866   9.731   9.095  1.00  0.00     0.219 C 
BRANCH  49  50
ATOM     50  C   SER     7      -3.582   8.405   9.403  1.00  0.00     0.277 C 
ATOM     51  O   SER     7      -3.160   7.689  10.305  1.00  0.00    -0.268 OA
ATOM     52  N   GLY     8      -4.761   8.236   8.819  1.00  0.00    -0.226 NA
BRANCH  52  53
ATOM     53  CA  GLY     8      -5.474   6.931   8.847  1.00  0.00     0.218 C 
BRANCH  53  54
ATOM     54  C   GLY     8      -6.934   6.912   9.333  1.00  0.00     0.277 C 
ATOM     55  N   GLY     9      -7.674   5.842   9.006  1.00  0.00    -0.226 NA
ATOM     56  O   GLY     8      -7.363   7.822  10.023  1.00  0.00    -0.268 OA
BRANCH  55  57
ATOM     57  CA  GLY     9      -9.099   5.706   9.371  1.00  0.00     0.218 C 
BRANCH  57  58
ATOM     58  C   GLY     9     -10.023   6.015   8.169  1.00  0.00     0.277 C 
ATOM     59  O   GLY     9      -9.663   6.833   7.331  1.00  0.00    -0.268 OA
ATOM     60  N   CYS    10     -11.262   5.550   8.102  1.00  0.00    -0.228 NA
BRANCH  60  61
ATOM     61  CA  CYS    10     -11.984   4.731   9.106  1.00  0.00     0.198 C 
BRANCH  61  62
ATOM     62  CB  CYS    10     -12.761   5.589  10.111  1.00  0.00     0.103 C 
ATOM     63  SG  CYS    10     -13.353   7.226   9.560  1.00  0.00    -0.080 SA
ENDBRANCH  61  62
BRANCH  61  64
ATOM     64  C   CYS    10     -13.037   3.795   8.508  1.00  0.00     0.275 C 
ATOM     65  O   CYS    10     -13.773   4.211   7.615  1.00  0.00    -0.268 OA
ATOM     66  N   GLY    11     -12.844   2.518   8.798  1.00  0.00    -0.225 NA
BRANCH  66  67
ATOM     67  CA  GLY    11     -13.971   1.591   8.972  1.00  0.00     0.226 C 
BRANCH  67  68
ATOM     68  C   GLY    11     -13.332   0.194   8.983  1.00  0.00     0.211 C 
ATOM     69  O2  GLY    11     -13.093  -0.281  10.115  1.00  0.00    -0.646 OA
ATOM     70  O1  GLY    11     -13.452  -0.478   7.933  1.00  0.00    -0.646 OA
ENDBRANCH  67  68
ENDBRANCH  66  67
ENDBRANCH  61  64
ENDBRANCH  60  61
ENDBRANCH  57  58
ENDBRANCH  55  57
ENDBRANCH  53  54
ENDBRANCH  52  53
ENDBRANCH  49  50
BRANCH  49  71
ATOM     71  CB  SER     7      -3.916  10.699   8.545  1.00  0.00     0.216 C 
ATOM     72  OG  SER     7      -3.283  11.706   7.755  1.00  0.00    -0.218 OA
ENDBRANCH  49  71
ENDBRANCH  47  49
ENDBRANCH  42  46
ENDBRANCH   1  39
TORSDOF 33
ENDMDL
MODEL 9
REMARK VINA RESULT:      -2.2      2.599      3.429
REMARK WARNING: 32 MAX_TORS EXCEEDED!!!
REMARK  33 active torsions:
REMARK  status: ('A' for Active; 'I' for Inactive)
REMARK    1  A    between atoms: CA_2  and  C_8 
REMARK    2  A    between atoms: CA_2  and  CB_3 
REMARK    3  A    between atoms: CB_3  and  CG_4 
REMARK    4  A    between atoms: CG_4  and  CD_5 
REMARK       I    between atoms: C_8  and  N_10 
REMARK    5  A    between atoms: N_10  and  CA_11 
REMARK    6  A    between atoms: CA_11  and  C_12 
REMARK       I    between atoms: C_12  and  N_14 
REMARK    7  A    between atoms: N_14  and  CA_15 
REMARK    8  A    between atoms: CA_15  and  C_20 
REMARK    9  A    between atoms: CA_15  and  CB_16 
REMARK   10  A    between atoms: CB_16  and  CG_17 
REMARK       I    between atoms: C_20  and  N_22 
REMARK   11  A    between atoms: N_22  and  CA_23 
REMARK   12  A    between atoms: CA_23  and  CB_24 
REMARK   13  A    between atoms: CA_23  and  C_28 
REMARK   14  A    between atoms: CB_24  and  CG_25 
REMARK       I    between atoms: C_28  and  N_30 
REMARK   15  A    between atoms: N_30  and  CA_31 
REMARK   16  A    between atoms: CA_31  and  CB_32 
REMARK   17  A    between atoms: CA_31  and  C_39 
REMARK   18  A    between atoms: CB_32  and  CG_33 
REMARK   19  A    between atoms: CG_33  and  CD_34 
REMARK   20  A    between atoms: CD_34  and  NE_35 
REMARK       I    between atoms: C_39  and  N_41 
REMARK   21  A    between atoms: CA_42  and  C_46 
REMARK       I    between atoms: C_46  and  N_48 
REMARK   22  A    between atoms: N_48  and  CA_49 
REMARK   23  A    between atoms: CA_49  and  C_52 
REMARK   24  A    between atoms: CA_49  and  CB_50 
REMARK       I    between atoms: C_52  and  N_54 
REMARK   25  A    between atoms: N_54  and  CA_55 
REMARK   26  A    between atoms: CA_55  and  C_56 
REMARK       I    between atoms: C_56  and  N_58 
REMARK   27  A    between atoms: N_58  and  CA_59 
REMARK   28  A    between atoms: CA_59  and  C_60 
REMARK       I    between atoms: C_60  and  N_62 
REMARK   29  A    between atoms: N_62  and  CA_63 
REMARK   30  A    between atoms: CA_63  and  CB_64 
REMARK   31  A    between atoms: CA_63  and  C_66 
REMARK       I    between atoms: C_66  and  N_68 
REMARK   32  A    between atoms: N_68  and  CA_69 
REMARK   33  A    between atoms: CA_69  and  C_70 
ROOT
ATOM      1  CA  ARG     5      -1.164   4.964   8.636  1.00  0.00     0.185 C 
ENDROOT
BRANCH   1   2
ATOM      2  N   ARG     5       0.202   5.186   8.127  1.00  0.00    -0.229 NA
ATOM      3  C   ASN     4       1.311   4.684   8.649  1.00  0.00     0.275 C 
ATOM      4  O   ASN     4       1.381   4.177   9.764  1.00  0.00    -0.268 OA
BRANCH   3   5
ATOM      5  CA  ASN     4       2.576   5.098   7.869  1.00  0.00     0.196 C 
BRANCH   5   6
ATOM      6  N   ASN     4       3.495   5.867   8.735  1.00  0.00    -0.228 NA
ATOM      7  C   LEU     3       3.636   7.188   8.658  1.00  0.00     0.274 C 
ATOM      8  O   LEU     3       3.023   7.920   7.875  1.00  0.00    -0.268 OA
BRANCH   7   9
ATOM      9  CA  LEU     3       4.597   7.794   9.679  1.00  0.00     0.186 C 
BRANCH   9  10
ATOM     10  N   LEU     3       5.941   7.199   9.510  1.00  0.00    -0.229 NA
ATOM     11  C   GLY     2       6.956   7.450  10.342  1.00  0.00     0.277 C 
ATOM     12  O   GLY     2       6.825   8.061  11.392  1.00  0.00    -0.268 OA
BRANCH  11  13
ATOM     13  CA  GLY     2       8.299   6.774   9.994  1.00  0.00     0.218 C 
BRANCH  13  14
ATOM     14  N   GLY     2       9.534   7.591  10.078  1.00  0.00    -0.226 NA
ATOM     15  C   GLU     1      10.748   7.034  10.164  1.00  0.00     0.289 C 
ATOM     16  O   GLU     1      10.904   5.835  10.009  1.00  0.00    -0.268 OA
BRANCH  15  17
ATOM     17  CA  GLU     1      11.978   7.957  10.378  1.00  0.00     0.381 C 
ATOM     18  N   GLU     1      11.757   9.015  11.379  1.00  0.00     0.626 N 
BRANCH  17  19
ATOM     19  CB  GLU     1      13.191   7.079  10.750  1.00  0.00     0.060 C 
BRANCH  19  20
ATOM     20  CG  GLU     1      13.842   6.198   9.673  1.00  0.00     0.100 C 
BRANCH  20  21
ATOM     21  CD  GLU     1      13.793   4.702  10.017  1.00  0.00     0.185 C 
ATOM     22  OE1 GLU     1      14.359   3.900   9.253  1.00  0.00    -0.647 OA
ATOM     23  OE2 GLU     1      13.163   4.348  11.030  1.00  0.00    -0.647 OA
ENDBRANCH  20  21
ENDBRANCH  19  20
ENDBRANCH  17  19
ENDBRANCH  15  17
ENDBRANCH  13  14
ENDBRANCH  11  13
ENDBRANCH   9  10
BRANCH   9  24
ATOM     24  CB  LEU     3       4.651   9.312   9.465  1.00  0.00     0.034 C 
BRANCH  24  25
ATOM     25  CG  LEU     3       4.032  10.125  10.617  1.00  0.00     0.002 C 
ATOM     26  CD1 LEU     3       5.141  10.833  11.392  1.00  0.00     0.000 C 
ATOM     27  CD2 LEU     3       3.021  11.150  10.091  1.00  0.00     0.000 C 
ENDBRANCH  24  25
ENDBRANCH   9  24
ENDBRANCH   7   9
ENDBRANCH   5   6
BRANCH   5  28
ATOM     28  CB  ASN     4       3.300   3.876   7.279  1.00  0.00     0.126 C 
BRANCH  28  29
ATOM     29  CG  ASN     4       4.522   3.423   8.102  1.00  0.00     0.276 C 
ATOM     30  ND2 ASN     4       4.306   2.501   9.002  1.00  0.00    -0.107 N 
ATOM     31  OD1 ASN     4       5.654   3.825   7.912  1.00  0.00    -0.269 OA
ENDBRANCH  28  29
ENDBRANCH   5  28
ENDBRANCH   3   5
ENDBRANCH   1   2
BRANCH   1  32
ATOM     32  CB  ARG     5      -1.122   4.310  10.021  1.00  0.00     0.036 C 
BRANCH  32  33
ATOM     33  CG  ARG     5      -1.846   2.965  10.093  1.00  0.00     0.029 C 
BRANCH  33  34
ATOM     34  CD  ARG     5      -3.342   3.203  10.274  1.00  0.00     0.145 C 
BRANCH  34  35
ATOM     35  NE  ARG     5      -4.115   2.809   9.071  1.00  0.00    -0.083 NA
ATOM     36  CZ  ARG     5      -5.114   3.526   8.535  1.00  0.00     0.782 C 
ATOM     37  NH2 ARG     5      -5.601   3.236   7.317  1.00  0.00     0.063 N 
ATOM     38  NH1 ARG     5      -5.573   4.620   9.126  1.00  0.00     0.063 N 
ENDBRANCH  34  35
ENDBRANCH  33  34
ENDBRANCH  32  33
ENDBRANCH   1  32
BRANCH   1  39
ATOM     39  C   ARG     5      -1.906   6.310   8.723  1.00  0.00     0.256 C 
ATOM     40  O   ARG     5      -3.012   6.436   8.187  1.00  0.00    -0.270 OA
ATOM     41  N   PRO     6      -1.353   7.266   9.476  1.00  0.00    -0.312 N 
ATOM     42  CA  PRO     6      -1.915   8.625   9.640  1.00  0.00     0.165 C 
ATOM     43  CD  PRO     6      -0.199   7.082  10.383  1.00  0.00     0.105 C 
ATOM     44  CB  PRO     6      -0.891   9.372  10.495  1.00  0.00     0.034 C 
ATOM     45  CG  PRO     6      -0.286   8.266  11.347  1.00  0.00     0.027 C 
BRANCH  42  46
ATOM     46  C   PRO     6      -2.108   9.320   8.282  1.00  0.00     0.272 C 
ATOM     47  N   SER     7      -3.044  10.251   8.155  1.00  0.00    -0.226 NA
ATOM     48  O   PRO     6      -1.471   8.938   7.296  1.00  0.00    -0.269 OA
BRANCH  47  49
ATOM     49  CA  SER     7      -3.977  10.722   9.207  1.00  0.00     0.219 C 
BRANCH  49  50
ATOM     50  C   SER     7      -5.029   9.656   9.561  1.00  0.00     0.277 C 
ATOM     51  O   SER     7      -4.988   9.115  10.661  1.00  0.00    -0.268 OA
ATOM     52  N   GLY     8      -6.060   9.564   8.732  1.00  0.00    -0.226 NA
BRANCH  52  53
ATOM     53  CA  GLY     8      -7.043   8.453   8.818  1.00  0.00     0.218 C 
BRANCH  53  54
ATOM     54  C   GLY     8      -8.470   8.780   9.295  1.00  0.00     0.277 C 
ATOM     55  N   GLY     9      -9.408   7.841   9.107  1.00  0.00    -0.226 NA
ATOM     56  O   GLY     8      -8.701   9.838   9.856  1.00  0.00    -0.268 OA
BRANCH  55  57
ATOM     57  CA  GLY     9     -10.825   8.032   9.478  1.00  0.00     0.218 C 
BRANCH  57  58
ATOM     58  C   GLY     9     -11.726   8.162   8.227  1.00  0.00     0.277 C 
ATOM     59  O   GLY     9     -11.330   8.812   7.268  1.00  0.00    -0.268 OA
ATOM     60  N   CYS    10     -12.980   7.732   8.221  1.00  0.00    -0.228 NA
BRANCH  60  61
ATOM     61  CA  CYS    10     -13.739   7.121   9.338  1.00  0.00     0.198 C 
BRANCH  61  62
ATOM     62  CB  CYS    10     -14.884   8.017   9.827  1.00  0.00     0.103 C 
ATOM     63  SG  CYS    10     -14.774   9.807   9.484  1.00  0.00    -0.080 SA
ENDBRANCH  61  62
BRANCH  61  64
ATOM     64  C   CYS    10     -14.418   5.796   8.981  1.00  0.00     0.275 C 
ATOM     65  O   CYS    10     -13.894   5.057   8.150  1.00  0.00    -0.268 OA
ATOM     66  N   GLY    11     -15.354   5.427   9.840  1.00  0.00    -0.225 NA
BRANCH  66  67
ATOM     67  CA  GLY    11     -16.544   4.681   9.406  1.00  0.00     0.226 C 
BRANCH  67  68
ATOM     68  C   GLY    11     -16.643   3.497  10.381  1.00  0.00     0.211 C 
ATOM     69  O2  GLY    11     -17.546   2.669  10.134  1.00  0.00    -0.646 OA
ATOM     70  O1  GLY    11     -15.626   3.265  11.074  1.00  0.00    -0.646 OA
ENDBRANCH  67  68
ENDBRANCH  66  67
ENDBRANCH  61  64
ENDBRANCH  60  61
ENDBRANCH  57  58
ENDBRANCH  55  57
ENDBRANCH  53  54
ENDBRANCH  52  53
ENDBRANCH  49  50
BRANCH  49  71
ATOM     71  CB  SER     7      -4.731  11.980   8.772  1.00  0.00     0.216 C 
ATOM     72  OG  SER     7      -4.158  13.130   9.396  1.00  0.00    -0.218 OA
ENDBRANCH  49  71
ENDBRANCH  47  49
ENDBRANCH  42  46
ENDBRANCH   1  39
TORSDOF 33
ENDMDL
