MODEL 1
REMARK VINA RESULT:      -5.7      0.000      0.000
REMARK WARNING: 32 MAX_TORS EXCEEDED!!!
REMARK  42 active torsions:
REMARK  status: ('A' for Active; 'I' for Inactive)
REMARK    1  A    between atoms: CA_2  and  CB_3 
REMARK    2  A    between atoms: CA_2  and  C_11 
REMARK    3  A    between atoms: CB_3  and  CG_4 
REMARK       I    between atoms: C_11  and  N_13 
REMARK    4  A    between atoms: N_13  and  CA_14 
REMARK    5  A    between atoms: CA_14  and  CB_15 
REMARK    6  A    between atoms: CA_14  and  C_19 
REMARK    7  A    between atoms: CB_15  and  CG_16 
REMARK       I    between atoms: C_19  and  N_21 
REMARK    8  A    between atoms: CA_22  and  C_26 
REMARK       I    between atoms: C_26  and  N_28 
REMARK    9  A    between atoms: N_28  and  CA_29 
REMARK   10  A    between atoms: CA_29  and  C_35 
REMARK   11  A    between atoms: CA_29  and  CB_30 
REMARK   12  A    between atoms: CB_30  and  CG_31 
REMARK   13  A    between atoms: CG_31  and  CD_32 
REMARK       I    between atoms: C_35  and  N_37 
REMARK   14  A    between atoms: N_37  and  CA_38 
REMARK   15  A    between atoms: CA_38  and  CB_39 
REMARK   16  A    between atoms: CA_38  and  C_47 
REMARK   17  A    between atoms: CB_39  and  CG_40 
REMARK       I    between atoms: C_47  and  N_49 
REMARK   18  A    between atoms: N_49  and  CA_50 
REMARK   19  A    between atoms: CA_50  and  CB_51 
REMARK   20  A    between atoms: CA_50  and  C_58 
REMARK   21  A    between atoms: CB_51  and  CG_52 
REMARK   22  A    between atoms: CG_52  and  CD_53 
REMARK   23  A    between atoms: CD_53  and  NE_54 
REMARK       I    between atoms: C_58  and  N_60 
REMARK   24  A    between atoms: N_60  and  CA_61 
REMARK   25  A    between atoms: CA_61  and  C_66 
REMARK   26  A    between atoms: CA_61  and  CB_62 
REMARK   27  A    between atoms: CB_62  and  CG_63 
REMARK       I    between atoms: C_66  and  N_68 
REMARK   28  A    between atoms: N_68  and  CA_69 
REMARK   29  A    between atoms: CA_69  and  CB_70 
REMARK   30  A    between atoms: CA_69  and  C_77 
REMARK   31  A    between atoms: CB_70  and  CG_71 
REMARK       I    between atoms: C_77  and  N_79 
REMARK   32  A    between atoms: N_79  and  CA_80 
REMARK   33  A    between atoms: CA_80  and  CB_81 
REMARK   34  A    between atoms: CA_80  and  C_91 
REMARK   35  A    between atoms: CB_81  and  CG_82 
REMARK       I    between atoms: C_91  and  N_93 
REMARK   36  A    between atoms: N_93  and  CA_94 
REMARK   37  A    between atoms: CA_94  and  C_95 
REMARK       I    between atoms: C_95  and  N_97 
REMARK   38  A    between atoms: N_97  and  CA_98 
REMARK   39  A    between atoms: CA_98  and  C_101 
REMARK   40  A    between atoms: CA_98  and  CB_99 
REMARK       I    between atoms: C_101  and  N_103 
REMARK   41  A    between atoms: N_103  and  CA_104 
REMARK   42  A    between atoms: CA_104  and  C_105 
ROOT
ATOM      1  CA  ARG     6      -0.510   5.543   9.500  1.00  0.00     0.186 C 
ENDROOT
BRANCH   1   2
ATOM      2  N   ARG     6      -1.708   5.307   8.660  1.00  0.00    -0.229 NA
ATOM      3  C   TYR     5      -2.911   5.040   9.184  1.00  0.00     0.275 C 
ATOM      4  O   TYR     5      -3.107   5.001  10.399  1.00  0.00    -0.268 OA
BRANCH   3   5
ATOM      5  CA  TYR     5      -4.085   4.890   8.202  1.00  0.00     0.191 C 
BRANCH   5   6
ATOM      6  N   TYR     5      -4.982   3.749   8.521  1.00  0.00    -0.228 NA
ATOM      7  C   GLU     4      -5.591   3.009   7.580  1.00  0.00     0.274 C 
ATOM      8  O   GLU     4      -5.346   3.127   6.386  1.00  0.00    -0.268 OA
BRANCH   7   9
ATOM      9  CA  GLU     4      -6.372   1.779   8.086  1.00  0.00     0.187 C 
BRANCH   9  10
ATOM     10  CB  GLU     4      -5.404   0.777   8.735  1.00  0.00     0.045 C 
BRANCH  10  11
ATOM     11  CG  GLU     4      -4.097   0.491   7.963  1.00  0.00     0.100 C 
BRANCH  11  12
ATOM     12  CD  GLU     4      -2.822   0.819   8.739  1.00  0.00     0.185 C 
ATOM     13  OE1 GLU     4      -2.946   1.494   9.795  1.00  0.00    -0.647 OA
ATOM     14  OE2 GLU     4      -1.757   0.830   8.090  1.00  0.00    -0.647 OA
ENDBRANCH  11  12
ENDBRANCH  10  11
ENDBRANCH   9  10
BRANCH   9  15
ATOM     15  N   GLU     4      -7.122   1.086   7.020  1.00  0.00    -0.229 NA
ATOM     16  C   PRO     3      -7.906   0.021   7.130  1.00  0.00     0.272 C 
ATOM     17  O   PRO     3      -8.425  -0.331   8.190  1.00  0.00    -0.269 OA
BRANCH  16  18
ATOM     18  CA  PRO     3      -8.542  -0.459   5.823  1.00  0.00     0.165 C 
ATOM     19  N   PRO     3      -8.494  -1.921   5.609  1.00  0.00    -0.312 N 
ATOM     20  CD  PRO     3      -9.780  -2.382   5.024  1.00  0.00     0.105 C 
ATOM     21  C   ASP     2      -7.389  -2.669   5.777  1.00  0.00     0.257 C 
ATOM     22  CG  PRO     3     -10.532  -1.084   4.691  1.00  0.00     0.027 C 
ATOM     23  CB  PRO     3     -10.021  -0.091   5.731  1.00  0.00     0.034 C 
ATOM     24  O   ASP     2      -6.282  -2.128   5.919  1.00  0.00    -0.270 OA
BRANCH  21  25
ATOM     25  CA  ASP     2      -7.433  -4.177   5.440  1.00  0.00     0.195 C 
BRANCH  25  26
ATOM     26  CB  ASP     2      -8.683  -4.675   4.670  1.00  0.00     0.132 C 
BRANCH  26  27
ATOM     27  CG  ASP     2      -8.775  -6.211   4.729  1.00  0.00     0.188 C 
ATOM     28  OD2 ASP     2      -7.933  -6.831   4.030  1.00  0.00    -0.647 OA
ATOM     29  OD1 ASP     2      -9.912  -6.701   4.939  1.00  0.00    -0.647 OA
ENDBRANCH  26  27
ENDBRANCH  25  26
BRANCH  25  30
ATOM     30  N   ASP     2      -7.451  -5.015   6.651  1.00  0.00    -0.228 NA
ATOM     31  C   TYR     1      -8.175  -4.819   7.729  1.00  0.00     0.289 C 
ATOM     32  O   TYR     1      -9.075  -3.991   7.902  1.00  0.00    -0.268 OA
BRANCH  31  33
ATOM     33  CA  TYR     1      -7.775  -5.758   8.863  1.00  0.00     0.385 C 
ATOM     34  N   TYR     1      -8.743  -5.581   9.959  1.00  0.00     0.626 N 
BRANCH  33  35
ATOM     35  CB  TYR     1      -7.781  -7.178   8.302  1.00  0.00     0.075 C 
BRANCH  35  36
ATOM     36  CG  TYR     1      -6.712  -8.080   8.938  1.00  0.00    -0.019 A 
ATOM     37  CD2 TYR     1      -6.519  -9.384   8.509  1.00  0.00    -0.002 A 
ATOM     38  CE2 TYR     1      -5.461 -10.132   9.003  1.00  0.00     0.027 A 
ATOM     39  CZ  TYR     1      -4.602  -9.558   9.940  1.00  0.00     0.131 A 
ATOM     40  CE1 TYR     1      -4.825  -8.270  10.394  1.00  0.00     0.027 A 
ATOM     41  OH  TYR     1      -3.465 -10.190  10.294  1.00  0.00    -0.190 OA
ATOM     42  CD1 TYR     1      -5.883  -7.523   9.900  1.00  0.00    -0.002 A 
ENDBRANCH  35  36
ENDBRANCH  33  35
ENDBRANCH  31  33
ENDBRANCH  25  30
ENDBRANCH  21  25
ENDBRANCH  16  18
ENDBRANCH   9  15
ENDBRANCH   7   9
ENDBRANCH   5   6
BRANCH   5  43
ATOM     43  CB  TYR     5      -4.898   6.192   8.116  1.00  0.00     0.060 C 
BRANCH  43  44
ATOM     44  CG  TYR     5      -4.609   6.976   6.825  1.00  0.00    -0.020 A 
ATOM     45  CD2 TYR     5      -4.198   6.316   5.674  1.00  0.00    -0.002 A 
ATOM     46  CE2 TYR     5      -3.946   7.034   4.508  1.00  0.00     0.027 A 
ATOM     47  CZ  TYR     5      -4.103   8.411   4.494  1.00  0.00     0.131 A 
ATOM     48  CE1 TYR     5      -4.531   9.077   5.637  1.00  0.00     0.027 A 
ATOM     49  OH  TYR     5      -3.728   9.128   3.413  1.00  0.00    -0.190 OA
ATOM     50  CD1 TYR     5      -4.775   8.357   6.806  1.00  0.00    -0.002 A 
ENDBRANCH  43  44
ENDBRANCH   5  43
ENDBRANCH   3   5
ENDBRANCH   1   2
BRANCH   1  51
ATOM     51  CB  ARG     6      -0.007   4.276  10.184  1.00  0.00     0.036 C 
BRANCH  51  52
ATOM     52  CG  ARG     6       0.529   3.223   9.210  1.00  0.00     0.029 C 
BRANCH  52  53
ATOM     53  CD  ARG     6       0.911   1.951   9.961  1.00  0.00     0.145 C 
BRANCH  53  54
ATOM     54  NE  ARG     6       1.482   0.949   9.045  1.00  0.00    -0.083 NA
ATOM     55  CZ  ARG     6       2.623   0.264   9.249  1.00  0.00     0.782 C 
ATOM     56  NH2 ARG     6       3.095  -0.562   8.313  1.00  0.00     0.063 N 
ATOM     57  NH1 ARG     6       3.341   0.468  10.349  1.00  0.00     0.063 N 
ENDBRANCH  53  54
ENDBRANCH  52  53
ENDBRANCH  51  52
ENDBRANCH   1  51
BRANCH   1  58
ATOM     58  C   ARG     6       0.669   6.106   8.697  1.00  0.00     0.274 C 
ATOM     59  N   ASN     7       1.687   6.570   9.415  1.00  0.00    -0.228 NA
ATOM     60  O   ARG     6       0.613   6.104   7.466  1.00  0.00    -0.268 OA
BRANCH  59  61
ATOM     61  CA  ASN     7       2.948   7.060   8.820  1.00  0.00     0.196 C 
BRANCH  61  62
ATOM     62  C   ASN     7       4.160   6.242   9.307  1.00  0.00     0.275 C 
ATOM     63  N   PHE     8       5.336   6.485   8.709  1.00  0.00    -0.228 NA
ATOM     64  O   ASN     7       4.081   5.739  10.411  1.00  0.00    -0.268 OA
BRANCH  63  65
ATOM     65  CA  PHE     8       6.627   5.865   9.094  1.00  0.00     0.191 C 
BRANCH  65  66
ATOM     66  CB  PHE     8       6.926   4.726   8.110  1.00  0.00     0.060 C 
BRANCH  66  67
ATOM     67  CG  PHE     8       7.320   3.395   8.777  1.00  0.00    -0.020 A 
ATOM     68  CD1 PHE     8       8.208   2.538   8.142  1.00  0.00    -0.004 A 
ATOM     69  CE1 PHE     8       8.485   1.289   8.697  1.00  0.00    -0.000 A 
ATOM     70  CZ  PHE     8       7.883   0.917   9.888  1.00  0.00    -0.000 A 
ATOM     71  CE2 PHE     8       7.003   1.779  10.533  1.00  0.00    -0.000 A 
ATOM     72  CD2 PHE     8       6.726   3.028   9.978  1.00  0.00    -0.004 A 
ENDBRANCH  66  67
ENDBRANCH  65  66
BRANCH  65  73
ATOM     73  C   PHE     8       7.815   6.847   9.209  1.00  0.00     0.275 C 
ATOM     74  N   TRP     9       8.062   7.606   8.140  1.00  0.00    -0.228 NA
ATOM     75  O   PHE     8       8.631   6.750  10.129  1.00  0.00    -0.268 OA
BRANCH  74  76
ATOM     76  CA  TRP     9       9.090   8.676   8.155  1.00  0.00     0.191 C 
BRANCH  76  77
ATOM     77  CB  TRP     9       9.516   8.975   6.708  1.00  0.00     0.062 C 
BRANCH  77  78
ATOM     78  CG  TRP     9      10.814   9.775   6.615  1.00  0.00     0.001 A 
ATOM     79  CD1 TRP     9      11.838   9.703   7.461  1.00  0.00     0.095 A 
ATOM     80  NE1 TRP     9      12.658  10.726   7.260  1.00  0.00    -0.244 NA
ATOM     81  CE2 TRP     9      12.199  11.474   6.268  1.00  0.00     0.081 A 
ATOM     82  CD2 TRP     9      11.011  10.909   5.834  1.00  0.00     0.015 A 
ATOM     83  CZ2 TRP     9      12.620  12.687   5.724  1.00  0.00     0.019 A 
ATOM     84  CE3 TRP     9      10.230  11.542   4.877  1.00  0.00     0.001 A 
ATOM     85  CZ3 TRP     9      10.642  12.758   4.343  1.00  0.00     0.000 A 
ATOM     86  CH2 TRP     9      11.850  13.317   4.758  1.00  0.00     0.002 A 
ENDBRANCH  77  78
ENDBRANCH  76  77
BRANCH  76  87
ATOM     87  C   TRP     9       8.668   9.961   8.902  1.00  0.00     0.275 C 
ATOM     88  O   TRP     9       9.321  10.381   9.853  1.00  0.00    -0.268 OA
ATOM     89  N   GLY    10       7.630  10.624   8.392  1.00  0.00    -0.226 NA
BRANCH  89  90
ATOM     90  CA  GLY    10       7.100  11.902   8.941  1.00  0.00     0.218 C 
BRANCH  90  91
ATOM     91  C   GLY    10       6.220  12.737   7.997  1.00  0.00     0.277 C 
ATOM     92  N   CYS    11       5.746  13.866   8.521  1.00  0.00    -0.228 NA
ATOM     93  O   GLY    10       5.859  12.283   6.917  1.00  0.00    -0.268 OA
BRANCH  92  94
ATOM     94  CA  CYS    11       4.897  14.867   7.837  1.00  0.00     0.198 C 
BRANCH  94  95
ATOM     95  C   CYS    11       5.790  15.677   6.876  1.00  0.00     0.275 C 
ATOM     96  O   CYS    11       5.546  15.655   5.675  1.00  0.00    -0.268 OA
ATOM     97  N   GLY    12       6.894  16.188   7.401  1.00  0.00    -0.225 NA
BRANCH  97  98
ATOM     98  CA  GLY    12       7.864  16.973   6.620  1.00  0.00     0.226 C 
BRANCH  98  99
ATOM     99  C   GLY    12       8.878  15.990   5.991  1.00  0.00     0.211 C 
ATOM    100  O1  GLY    12       9.902  15.724   6.670  1.00  0.00    -0.646 OA
ATOM    101  O2  GLY    12       8.600  15.502   4.880  1.00  0.00    -0.646 OA
ENDBRANCH  98  99
ENDBRANCH  97  98
ENDBRANCH  94  95
BRANCH  94 102
ATOM    102  CB  CYS    11       4.357  15.877   8.847  1.00  0.00     0.103 C 
ATOM    103  SG  CYS    11       2.657  15.573   9.465  1.00  0.00    -0.080 SA
ENDBRANCH  94 102
ENDBRANCH  92  94
ENDBRANCH  90  91
ENDBRANCH  89  90
ENDBRANCH  76  87
ENDBRANCH  74  76
ENDBRANCH  65  73
ENDBRANCH  63  65
ENDBRANCH  61  62
BRANCH  61 104
ATOM    104  CB  ASN     7       3.151   8.555   9.099  1.00  0.00     0.126 C 
BRANCH 104 105
ATOM    105  CG  ASN     7       2.908   9.477   7.890  1.00  0.00     0.276 C 
ATOM    106  ND2 ASN     7       1.652   9.732   7.602  1.00  0.00    -0.107 N 
ATOM    107  OD1 ASN     7       3.772   9.851   7.106  1.00  0.00    -0.269 OA
ENDBRANCH 104 105
ENDBRANCH  61 104
ENDBRANCH  59  61
ENDBRANCH   1  58
TORSDOF 42
ENDMDL
MODEL 2
REMARK VINA RESULT:      -5.5      2.380      3.924
REMARK WARNING: 32 MAX_TORS EXCEEDED!!!
REMARK  42 active torsions:
REMARK  status: ('A' for Active; 'I' for Inactive)
REMARK    1  A    between atoms: CA_2  and  CB_3 
REMARK    2  A    between atoms: CA_2  and  C_11 
REMARK    3  A    between atoms: CB_3  and  CG_4 
REMARK       I    between atoms: C_11  and  N_13 
REMARK    4  A    between atoms: N_13  and  CA_14 
REMARK    5  A    between atoms: CA_14  and  CB_15 
REMARK    6  A    between atoms: CA_14  and  C_19 
REMARK    7  A    between atoms: CB_15  and  CG_16 
REMARK       I    between atoms: C_19  and  N_21 
REMARK    8  A    between atoms: CA_22  and  C_26 
REMARK       I    between atoms: C_26  and  N_28 
REMARK    9  A    between atoms: N_28  and  CA_29 
REMARK   10  A    between atoms: CA_29  and  C_35 
REMARK   11  A    between atoms: CA_29  and  CB_30 
REMARK   12  A    between atoms: CB_30  and  CG_31 
REMARK   13  A    between atoms: CG_31  and  CD_32 
REMARK       I    between atoms: C_35  and  N_37 
REMARK   14  A    between atoms: N_37  and  CA_38 
REMARK   15  A    between atoms: CA_38  and  CB_39 
REMARK   16  A    between atoms: CA_38  and  C_47 
REMARK   17  A    between atoms: CB_39  and  CG_40 
REMARK       I    between atoms: C_47  and  N_49 
REMARK   18  A    between atoms: N_49  and  CA_50 
REMARK   19  A    between atoms: CA_50  and  CB_51 
REMARK   20  A    between atoms: CA_50  and  C_58 
REMARK   21  A    between atoms: CB_51  and  CG_52 
REMARK   22  A    between atoms: CG_52  and  CD_53 
REMARK   23  A    between atoms: CD_53  and  NE_54 
REMARK       I    between atoms: C_58  and  N_60 
REMARK   24  A    between atoms: N_60  and  CA_61 
REMARK   25  A    between atoms: CA_61  and  C_66 
REMARK   26  A    between atoms: CA_61  and  CB_62 
REMARK   27  A    between atoms: CB_62  and  CG_63 
REMARK       I    between atoms: C_66  and  N_68 
REMARK   28  A    between atoms: N_68  and  CA_69 
REMARK   29  A    between atoms: CA_69  and  CB_70 
REMARK   30  A    between atoms: CA_69  and  C_77 
REMARK   31  A    between atoms: CB_70  and  CG_71 
REMARK       I    between atoms: C_77  and  N_79 
REMARK   32  A    between atoms: N_79  and  CA_80 
REMARK   33  A    between atoms: CA_80  and  CB_81 
REMARK   34  A    between atoms: CA_80  and  C_91 
REMARK   35  A    between atoms: CB_81  and  CG_82 
REMARK       I    between atoms: C_91  and  N_93 
REMARK   36  A    between atoms: N_93  and  CA_94 
REMARK   37  A    between atoms: CA_94  and  C_95 
REMARK       I    between atoms: C_95  and  N_97 
REMARK   38  A    between atoms: N_97  and  CA_98 
REMARK   39  A    between atoms: CA_98  and  C_101 
REMARK   40  A    between atoms: CA_98  and  CB_99 
REMARK       I    between atoms: C_101  and  N_103 
REMARK   41  A    between atoms: N_103  and  CA_104 
REMARK   42  A    between atoms: CA_104  and  C_105 
ROOT
ATOM      1  CA  ARG     6      -0.041   6.185   8.956  1.00  0.00     0.186 C 
ENDROOT
BRANCH   1   2
ATOM      2  N   ARG     6      -1.292   5.871   8.228  1.00  0.00    -0.229 NA
ATOM      3  C   TYR     5      -2.485   5.826   8.836  1.00  0.00     0.275 C 
ATOM      4  O   TYR     5      -2.623   6.073  10.034  1.00  0.00    -0.268 OA
BRANCH   3   5
ATOM      5  CA  TYR     5      -3.714   5.563   7.950  1.00  0.00     0.191 C 
BRANCH   5   6
ATOM      6  N   TYR     5      -4.385   4.269   8.238  1.00  0.00    -0.228 NA
ATOM      7  C   GLU     4      -4.816   3.436   7.276  1.00  0.00     0.274 C 
ATOM      8  O   GLU     4      -4.564   3.609   6.090  1.00  0.00    -0.268 OA
BRANCH   7   9
ATOM      9  CA  GLU     4      -5.361   2.074   7.754  1.00  0.00     0.187 C 
BRANCH   9  10
ATOM     10  CB  GLU     4      -4.196   1.102   7.997  1.00  0.00     0.045 C 
BRANCH  10  11
ATOM     11  CG  GLU     4      -3.261   1.438   9.180  1.00  0.00     0.100 C 
BRANCH  11  12
ATOM     12  CD  GLU     4      -1.807   1.690   8.781  1.00  0.00     0.185 C 
ATOM     13  OE1 GLU     4      -1.603   2.330   7.716  1.00  0.00    -0.647 OA
ATOM     14  OE2 GLU     4      -0.958   0.892   9.225  1.00  0.00    -0.647 OA
ENDBRANCH  11  12
ENDBRANCH  10  11
ENDBRANCH   9  10
BRANCH   9  15
ATOM     15  N   GLU     4      -6.300   1.455   6.799  1.00  0.00    -0.229 NA
ATOM     16  C   PRO     3      -7.177   0.484   7.023  1.00  0.00     0.272 C 
ATOM     17  O   PRO     3      -7.603   0.204   8.145  1.00  0.00    -0.269 OA
BRANCH  16  18
ATOM     18  CA  PRO     3      -8.008   0.061   5.810  1.00  0.00     0.165 C 
ATOM     19  N   PRO     3      -8.336  -1.380   5.753  1.00  0.00    -0.312 N 
ATOM     20  CD  PRO     3      -9.736  -1.554   5.288  1.00  0.00     0.105 C 
ATOM     21  C   ASP     2      -7.439  -2.363   5.946  1.00  0.00     0.257 C 
ATOM     22  CG  PRO     3     -10.170  -0.146   4.854  1.00  0.00     0.027 C 
ATOM     23  CB  PRO     3      -9.354   0.779   5.753  1.00  0.00     0.034 C 
ATOM     24  O   ASP     2      -6.225  -2.107   5.972  1.00  0.00    -0.270 OA
BRANCH  21  25
ATOM     25  CA  ASP     2      -7.876  -3.836   5.777  1.00  0.00     0.195 C 
BRANCH  25  26
ATOM     26  CB  ASP     2      -8.381  -4.248   4.370  1.00  0.00     0.132 C 
BRANCH  26  27
ATOM     27  CG  ASP     2      -8.659  -5.762   4.321  1.00  0.00     0.188 C 
ATOM     28  OD2 ASP     2      -7.667  -6.486   4.052  1.00  0.00    -0.647 OA
ATOM     29  OD1 ASP     2      -9.815  -6.113   3.976  1.00  0.00    -0.647 OA
ENDBRANCH  26  27
ENDBRANCH  25  26
BRANCH  25  30
ATOM     30  N   ASP     2      -9.022  -4.175   6.638  1.00  0.00    -0.228 NA
ATOM     31  C   TYR     1      -8.999  -4.922   7.717  1.00  0.00     0.289 C 
ATOM     32  O   TYR     1      -8.014  -5.378   8.306  1.00  0.00    -0.268 OA
BRANCH  31  33
ATOM     33  CA  TYR     1     -10.404  -5.235   8.225  1.00  0.00     0.385 C 
ATOM     34  N   TYR     1     -10.306  -6.382   9.143  1.00  0.00     0.626 N 
BRANCH  33  35
ATOM     35  CB  TYR     1     -10.928  -3.977   8.914  1.00  0.00     0.075 C 
BRANCH  35  36
ATOM     36  CG  TYR     1     -12.271  -3.495   8.344  1.00  0.00    -0.019 A 
ATOM     37  CD2 TYR     1     -13.285  -4.386   8.032  1.00  0.00    -0.002 A 
ATOM     38  CE2 TYR     1     -14.532  -3.917   7.647  1.00  0.00     0.027 A 
ATOM     39  CZ  TYR     1     -14.748  -2.541   7.572  1.00  0.00     0.131 A 
ATOM     40  CE1 TYR     1     -13.718  -1.658   7.845  1.00  0.00     0.027 A 
ATOM     41  OH  TYR     1     -15.993  -2.059   7.385  1.00  0.00    -0.190 OA
ATOM     42  CD1 TYR     1     -12.472  -2.127   8.230  1.00  0.00    -0.002 A 
ENDBRANCH  35  36
ENDBRANCH  33  35
ENDBRANCH  31  33
ENDBRANCH  25  30
ENDBRANCH  21  25
ENDBRANCH  16  18
ENDBRANCH   9  15
ENDBRANCH   7   9
ENDBRANCH   5   6
BRANCH   5  43
ATOM     43  CB  TYR     5      -4.725   6.717   8.055  1.00  0.00     0.060 C 
BRANCH  43  44
ATOM     44  CG  TYR     5      -4.717   7.615   6.807  1.00  0.00    -0.020 A 
ATOM     45  CD2 TYR     5      -5.092   8.950   6.894  1.00  0.00    -0.002 A 
ATOM     46  CE2 TYR     5      -5.075   9.757   5.761  1.00  0.00     0.027 A 
ATOM     47  CZ  TYR     5      -4.683   9.229   4.540  1.00  0.00     0.131 A 
ATOM     48  CE1 TYR     5      -4.289   7.899   4.448  1.00  0.00     0.027 A 
ATOM     49  OH  TYR     5      -4.796   9.964   3.413  1.00  0.00    -0.190 OA
ATOM     50  CD1 TYR     5      -4.316   7.089   5.584  1.00  0.00    -0.002 A 
ENDBRANCH  43  44
ENDBRANCH   5  43
ENDBRANCH   3   5
ENDBRANCH   1   2
BRANCH   1  51
ATOM     51  CB  ARG     6       0.492   5.001   9.758  1.00  0.00     0.036 C 
BRANCH  51  52
ATOM     52  CG  ARG     6       1.010   3.853   8.889  1.00  0.00     0.029 C 
BRANCH  52  53
ATOM     53  CD  ARG     6       2.185   3.159   9.571  1.00  0.00     0.145 C 
BRANCH  53  54
ATOM     54  NE  ARG     6       3.465   3.593   8.987  1.00  0.00    -0.083 NA
ATOM     55  CZ  ARG     6       4.686   3.271   9.455  1.00  0.00     0.782 C 
ATOM     56  NH2 ARG     6       5.784   3.788   8.898  1.00  0.00     0.063 N 
ATOM     57  NH1 ARG     6       4.811   2.503  10.532  1.00  0.00     0.063 N 
ENDBRANCH  53  54
ENDBRANCH  52  53
ENDBRANCH  51  52
ENDBRANCH   1  51
BRANCH   1  58
ATOM     58  C   ARG     6       1.090   6.623   8.018  1.00  0.00     0.274 C 
ATOM     59  N   ASN     7       2.103   7.264   8.595  1.00  0.00    -0.228 NA
ATOM     60  O   ARG     6       1.005   6.373   6.815  1.00  0.00    -0.268 OA
BRANCH  59  61
ATOM     61  CA  ASN     7       3.324   7.675   7.872  1.00  0.00     0.196 C 
BRANCH  61  62
ATOM     62  C   ASN     7       4.600   7.215   8.605  1.00  0.00     0.275 C 
ATOM     63  N   PHE     8       5.770   7.449   7.993  1.00  0.00    -0.228 NA
ATOM     64  O   ASN     7       4.515   7.039   9.805  1.00  0.00    -0.268 OA
BRANCH  63  65
ATOM     65  CA  PHE     8       7.104   7.159   8.574  1.00  0.00     0.191 C 
BRANCH  65  66
ATOM     66  CB  PHE     8       7.948   6.446   7.508  1.00  0.00     0.060 C 
BRANCH  66  67
ATOM     67  CG  PHE     8       9.253   5.826   8.040  1.00  0.00    -0.020 A 
ATOM     68  CD1 PHE     8       9.202   4.742   8.906  1.00  0.00    -0.004 A 
ATOM     69  CE1 PHE     8      10.379   4.246   9.467  1.00  0.00    -0.000 A 
ATOM     70  CZ  PHE     8      11.594   4.829   9.144  1.00  0.00    -0.000 A 
ATOM     71  CE2 PHE     8      11.648   5.906   8.266  1.00  0.00    -0.000 A 
ATOM     72  CD2 PHE     8      10.472   6.402   7.705  1.00  0.00    -0.004 A 
ENDBRANCH  66  67
ENDBRANCH  65  66
BRANCH  65  73
ATOM     73  C   PHE     8       7.840   8.384   9.160  1.00  0.00     0.275 C 
ATOM     74  N   TRP     9       8.351   9.247   8.280  1.00  0.00    -0.228 NA
ATOM     75  O   PHE     8       8.155   8.424  10.352  1.00  0.00    -0.268 OA
BRANCH  74  76
ATOM     76  CA  TRP     9       8.974  10.526   8.701  1.00  0.00     0.191 C 
BRANCH  76  77
ATOM     77  CB  TRP     9      10.194  10.801   7.808  1.00  0.00     0.062 C 
BRANCH  77  78
ATOM     78  CG  TRP     9      11.454  10.069   8.267  1.00  0.00     0.001 A 
ATOM     79  CD1 TRP     9      12.015  10.160   9.470  1.00  0.00     0.095 A 
ATOM     80  NE1 TRP     9      13.235   9.639   9.435  1.00  0.00    -0.244 NA
ATOM     81  CE2 TRP     9      13.488   9.182   8.218  1.00  0.00     0.081 A 
ATOM     82  CD2 TRP     9      12.378   9.449   7.432  1.00  0.00     0.015 A 
ATOM     83  CZ2 TRP     9      14.628   8.634   7.631  1.00  0.00     0.019 A 
ATOM     84  CE3 TRP     9      12.394   9.192   6.069  1.00  0.00     0.001 A 
ATOM     85  CZ3 TRP     9      13.535   8.658   5.479  1.00  0.00     0.000 A 
ATOM     86  CH2 TRP     9      14.643   8.363   6.270  1.00  0.00     0.002 A 
ENDBRANCH  77  78
ENDBRANCH  76  77
BRANCH  76  87
ATOM     87  C   TRP     9       8.007  11.731   8.732  1.00  0.00     0.275 C 
ATOM     88  O   TRP     9       8.069  12.566   9.630  1.00  0.00    -0.268 OA
ATOM     89  N   GLY    10       7.189  11.856   7.688  1.00  0.00    -0.226 NA
BRANCH  89  90
ATOM     90  CA  GLY    10       6.217  12.970   7.513  1.00  0.00     0.218 C 
BRANCH  90  91
ATOM     91  C   GLY    10       6.565  14.017   6.442  1.00  0.00     0.277 C 
ATOM     92  N   CYS    11       7.792  13.916   5.934  1.00  0.00    -0.228 NA
ATOM     93  O   GLY    10       5.814  14.961   6.226  1.00  0.00    -0.268 OA
BRANCH  92  94
ATOM     94  CA  CYS    11       8.383  14.770   4.880  1.00  0.00     0.198 C 
BRANCH  94  95
ATOM     95  C   CYS    11       9.795  14.237   4.567  1.00  0.00     0.275 C 
ATOM     96  O   CYS    11      10.244  14.368   3.434  1.00  0.00    -0.268 OA
ATOM     97  N   GLY    12      10.356  13.490   5.507  1.00  0.00    -0.225 NA
BRANCH  97  98
ATOM     98  CA  GLY    12      11.691  12.890   5.363  1.00  0.00     0.226 C 
BRANCH  98  99
ATOM     99  C   GLY    12      12.619  13.531   6.422  1.00  0.00     0.211 C 
ATOM    100  O1  GLY    12      13.765  13.029   6.545  1.00  0.00    -0.646 OA
ATOM    101  O2  GLY    12      12.188  14.514   7.052  1.00  0.00    -0.646 OA
ENDBRANCH  98  99
ENDBRANCH  97  98
ENDBRANCH  94  95
BRANCH  94 102
ATOM    102  CB  CYS    11       8.585  16.190   5.405  1.00  0.00     0.103 C 
ATOM    103  SG  CYS    11       9.350  17.382   4.240  1.00  0.00    -0.080 SA
ENDBRANCH  94 102
ENDBRANCH  92  94
ENDBRANCH  90  91
ENDBRANCH  89  90
ENDBRANCH  76  87
ENDBRANCH  74  76
ENDBRANCH  65  73
ENDBRANCH  63  65
ENDBRANCH  61  62
BRANCH  61 104
ATOM    104  CB  ASN     7       3.347   9.191   7.637  1.00  0.00     0.126 C 
BRANCH 104 105
ATOM    105  CG  ASN     7       2.837   9.639   6.255  1.00  0.00     0.276 C 
ATOM    106  ND2 ASN     7       2.658  10.931   6.098  1.00  0.00    -0.107 N 
ATOM    107  OD1 ASN     7       2.447   8.886   5.372  1.00  0.00    -0.269 OA
ENDBRANCH 104 105
ENDBRANCH  61 104
ENDBRANCH  59  61
ENDBRANCH   1  58
TORSDOF 42
ENDMDL
MODEL 3
REMARK VINA RESULT:      -5.3      2.105      3.008
REMARK WARNING: 32 MAX_TORS EXCEEDED!!!
REMARK  42 active torsions:
REMARK  status: ('A' for Active; 'I' for Inactive)
REMARK    1  A    between atoms: CA_2  and  CB_3 
REMARK    2  A    between atoms: CA_2  and  C_11 
REMARK    3  A    between atoms: CB_3  and  CG_4 
REMARK       I    between atoms: C_11  and  N_13 
REMARK    4  A    between atoms: N_13  and  CA_14 
REMARK    5  A    between atoms: CA_14  and  CB_15 
REMARK    6  A    between atoms: CA_14  and  C_19 
REMARK    7  A    between atoms: CB_15  and  CG_16 
REMARK       I    between atoms: C_19  and  N_21 
REMARK    8  A    between atoms: CA_22  and  C_26 
REMARK       I    between atoms: C_26  and  N_28 
REMARK    9  A    between atoms: N_28  and  CA_29 
REMARK   10  A    between atoms: CA_29  and  C_35 
REMARK   11  A    between atoms: CA_29  and  CB_30 
REMARK   12  A    between atoms: CB_30  and  CG_31 
REMARK   13  A    between atoms: CG_31  and  CD_32 
REMARK       I    between atoms: C_35  and  N_37 
REMARK   14  A    between atoms: N_37  and  CA_38 
REMARK   15  A    between atoms: CA_38  and  CB_39 
REMARK   16  A    between atoms: CA_38  and  C_47 
REMARK   17  A    between atoms: CB_39  and  CG_40 
REMARK       I    between atoms: C_47  and  N_49 
REMARK   18  A    between atoms: N_49  and  CA_50 
REMARK   19  A    between atoms: CA_50  and  CB_51 
REMARK   20  A    between atoms: CA_50  and  C_58 
REMARK   21  A    between atoms: CB_51  and  CG_52 
REMARK   22  A    between atoms: CG_52  and  CD_53 
REMARK   23  A    between atoms: CD_53  and  NE_54 
REMARK       I    between atoms: C_58  and  N_60 
REMARK   24  A    between atoms: N_60  and  CA_61 
REMARK   25  A    between atoms: CA_61  and  C_66 
REMARK   26  A    between atoms: CA_61  and  CB_62 
REMARK   27  A    between atoms: CB_62  and  CG_63 
REMARK       I    between atoms: C_66  and  N_68 
REMARK   28  A    between atoms: N_68  and  CA_69 
REMARK   29  A    between atoms: CA_69  and  CB_70 
REMARK   30  A    between atoms: CA_69  and  C_77 
REMARK   31  A    between atoms: CB_70  and  CG_71 
REMARK       I    between atoms: C_77  and  N_79 
REMARK   32  A    between atoms: N_79  and  CA_80 
REMARK   33  A    between atoms: CA_80  and  CB_81 
REMARK   34  A    between atoms: CA_80  and  C_91 
REMARK   35  A    between atoms: CB_81  and  CG_82 
REMARK       I    between atoms: C_91  and  N_93 
REMARK   36  A    between atoms: N_93  and  CA_94 
REMARK   37  A    between atoms: CA_94  and  C_95 
REMARK       I    between atoms: C_95  and  N_97 
REMARK   38  A    between atoms: N_97  and  CA_98 
REMARK   39  A    between atoms: CA_98  and  C_101 
REMARK   40  A    between atoms: CA_98  and  CB_99 
REMARK       I    between atoms: C_101  and  N_103 
REMARK   41  A    between atoms: N_103  and  CA_104 
REMARK   42  A    between atoms: CA_104  and  C_105 
ROOT
ATOM      1  CA  ARG     6      -0.078   6.907   9.141  1.00  0.00     0.186 C 
ENDROOT
BRANCH   1   2
ATOM      2  N   ARG     6      -1.267   6.288   8.511  1.00  0.00    -0.229 NA
ATOM      3  C   TYR     5      -2.475   6.299   9.091  1.00  0.00     0.275 C 
ATOM      4  O   TYR     5      -2.681   6.849  10.173  1.00  0.00    -0.268 OA
BRANCH   3   5
ATOM      5  CA  TYR     5      -3.639   5.687   8.296  1.00  0.00     0.191 C 
BRANCH   5   6
ATOM      6  N   TYR     5      -4.183   4.443   8.902  1.00  0.00    -0.228 NA
ATOM      7  C   GLU     4      -4.650   3.416   8.174  1.00  0.00     0.274 C 
ATOM      8  O   GLU     4      -4.536   3.363   6.956  1.00  0.00    -0.268 OA
BRANCH   7   9
ATOM      9  CA  GLU     4      -5.044   2.151   8.964  1.00  0.00     0.187 C 
BRANCH   9  10
ATOM     10  CB  GLU     4      -4.102   0.992   8.597  1.00  0.00     0.045 C 
BRANCH  10  11
ATOM     11  CG  GLU     4      -3.258   0.406   9.750  1.00  0.00     0.100 C 
BRANCH  11  12
ATOM     12  CD  GLU     4      -2.037   1.245  10.126  1.00  0.00     0.185 C 
ATOM     13  OE1 GLU     4      -0.991   0.627  10.457  1.00  0.00    -0.647 OA
ATOM     14  OE2 GLU     4      -2.256   2.403  10.535  1.00  0.00    -0.647 OA
ENDBRANCH  11  12
ENDBRANCH  10  11
ENDBRANCH   9  10
BRANCH   9  15
ATOM     15  N   GLU     4      -6.434   1.722   8.721  1.00  0.00    -0.229 NA
ATOM     16  C   PRO     3      -7.056   0.649   9.196  1.00  0.00     0.272 C 
ATOM     17  O   PRO     3      -6.688   0.045  10.204  1.00  0.00    -0.269 OA
BRANCH  16  18
ATOM     18  CA  PRO     3      -8.511   0.487   8.750  1.00  0.00     0.165 C 
ATOM     19  N   PRO     3      -8.775  -0.700   7.909  1.00  0.00    -0.312 N 
ATOM     20  CD  PRO     3     -10.067  -1.316   8.306  1.00  0.00     0.105 C 
ATOM     21  C   ASP     2      -8.023  -1.052   6.850  1.00  0.00     0.257 C 
ATOM     22  CG  PRO     3     -10.681  -0.309   9.290  1.00  0.00     0.027 C 
ATOM     23  CB  PRO     3      -9.468   0.357   9.933  1.00  0.00     0.034 C 
ATOM     24  O   ASP     2      -7.180  -0.267   6.391  1.00  0.00    -0.270 OA
BRANCH  21  25
ATOM     25  CA  ASP     2      -8.443  -2.266   5.989  1.00  0.00     0.195 C 
BRANCH  25  26
ATOM     26  CB  ASP     2      -9.964  -2.445   5.746  1.00  0.00     0.132 C 
BRANCH  26  27
ATOM     27  CG  ASP     2     -10.415  -1.613   4.531  1.00  0.00     0.188 C 
ATOM     28  OD2 ASP     2     -10.498  -2.242   3.445  1.00  0.00    -0.647 OA
ATOM     29  OD1 ASP     2     -10.115  -0.394   4.538  1.00  0.00    -0.647 OA
ENDBRANCH  26  27
ENDBRANCH  25  26
BRANCH  25  30
ATOM     30  N   ASP     2      -8.068  -3.545   6.616  1.00  0.00    -0.228 NA
ATOM     31  C   TYR     1      -7.953  -4.707   6.018  1.00  0.00     0.289 C 
ATOM     32  O   TYR     1      -7.998  -4.948   4.807  1.00  0.00    -0.268 OA
BRANCH  31  33
ATOM     33  CA  TYR     1      -7.764  -5.846   7.015  1.00  0.00     0.385 C 
ATOM     34  N   TYR     1      -8.987  -5.941   7.829  1.00  0.00     0.626 N 
BRANCH  33  35
ATOM     35  CB  TYR     1      -7.497  -7.116   6.210  1.00  0.00     0.075 C 
BRANCH  35  36
ATOM     36  CG  TYR     1      -6.791  -8.209   7.028  1.00  0.00    -0.019 A 
ATOM     37  CD2 TYR     1      -5.607  -7.954   7.704  1.00  0.00    -0.002 A 
ATOM     38  CE2 TYR     1      -5.063  -8.914   8.543  1.00  0.00     0.027 A 
ATOM     39  CZ  TYR     1      -5.716 -10.137   8.692  1.00  0.00     0.131 A 
ATOM     40  CE1 TYR     1      -6.875 -10.400   7.982  1.00  0.00     0.027 A 
ATOM     41  OH  TYR     1      -5.314 -11.011   9.637  1.00  0.00    -0.190 OA
ATOM     42  CD1 TYR     1      -7.419  -9.440   7.143  1.00  0.00    -0.002 A 
ENDBRANCH  35  36
ENDBRANCH  33  35
ENDBRANCH  31  33
ENDBRANCH  25  30
ENDBRANCH  21  25
ENDBRANCH  16  18
ENDBRANCH   9  15
ENDBRANCH   7   9
ENDBRANCH   5   6
BRANCH   5  43
ATOM     43  CB  TYR     5      -4.768   6.713   8.097  1.00  0.00     0.060 C 
BRANCH  43  44
ATOM     44  CG  TYR     5      -4.583   7.541   6.814  1.00  0.00    -0.020 A 
ATOM     45  CD2 TYR     5      -4.317   6.917   5.602  1.00  0.00    -0.002 A 
ATOM     46  CE2 TYR     5      -4.159   7.675   4.445  1.00  0.00     0.027 A 
ATOM     47  CZ  TYR     5      -4.267   9.056   4.500  1.00  0.00     0.131 A 
ATOM     48  CE1 TYR     5      -4.551   9.686   5.706  1.00  0.00     0.027 A 
ATOM     49  OH  TYR     5      -3.978   9.805   3.414  1.00  0.00    -0.190 OA
ATOM     50  CD1 TYR     5      -4.700   8.926   6.866  1.00  0.00    -0.002 A 
ENDBRANCH  43  44
ENDBRANCH   5  43
ENDBRANCH   3   5
ENDBRANCH   1   2
BRANCH   1  51
ATOM     51  CB  ARG     6       0.580   6.005  10.180  1.00  0.00     0.036 C 
BRANCH  51  52
ATOM     52  CG  ARG     6       1.836   5.295   9.669  1.00  0.00     0.029 C 
BRANCH  52  53
ATOM     53  CD  ARG     6       1.537   3.826   9.382  1.00  0.00     0.145 C 
BRANCH  53  54
ATOM     54  NE  ARG     6       2.637   2.963   9.843  1.00  0.00    -0.083 NA
ATOM     55  CZ  ARG     6       2.734   1.638   9.625  1.00  0.00     0.782 C 
ATOM     56  NH2 ARG     6       3.734   0.934  10.160  1.00  0.00     0.063 N 
ATOM     57  NH1 ARG     6       1.788   0.998   8.946  1.00  0.00     0.063 N 
ENDBRANCH  53  54
ENDBRANCH  52  53
ENDBRANCH  51  52
ENDBRANCH   1  51
BRANCH   1  58
ATOM     58  C   ARG     6       1.008   7.266   8.120  1.00  0.00     0.274 C 
ATOM     59  N   ASN     7       1.985   8.050   8.567  1.00  0.00    -0.228 NA
ATOM     60  O   ARG     6       0.922   6.827   6.972  1.00  0.00    -0.268 OA
BRANCH  59  61
ATOM     61  CA  ASN     7       3.166   8.421   7.760  1.00  0.00     0.196 C 
BRANCH  61  62
ATOM     62  C   ASN     7       4.285   7.368   7.876  1.00  0.00     0.275 C 
ATOM     63  N   PHE     8       5.333   7.679   8.654  1.00  0.00    -0.228 NA
ATOM     64  O   ASN     7       3.996   6.220   7.599  1.00  0.00    -0.268 OA
BRANCH  63  65
ATOM     65  CA  PHE     8       6.463   6.767   8.958  1.00  0.00     0.191 C 
BRANCH  65  66
ATOM     66  CB  PHE     8       6.503   5.674   7.881  1.00  0.00     0.060 C 
BRANCH  66  67
ATOM     67  CG  PHE     8       7.305   4.420   8.276  1.00  0.00    -0.020 A 
ATOM     68  CD1 PHE     8       8.097   3.779   7.334  1.00  0.00    -0.004 A 
ATOM     69  CE1 PHE     8       8.741   2.587   7.663  1.00  0.00    -0.000 A 
ATOM     70  CZ  PHE     8       8.600   2.058   8.936  1.00  0.00    -0.000 A 
ATOM     71  CE2 PHE     8       7.817   2.706   9.886  1.00  0.00    -0.000 A 
ATOM     72  CD2 PHE     8       7.173   3.898   9.557  1.00  0.00    -0.004 A 
ENDBRANCH  66  67
ENDBRANCH  65  66
BRANCH  65  73
ATOM     73  C   PHE     8       7.835   7.460   9.120  1.00  0.00     0.275 C 
ATOM     74  N   TRP     9       8.333   8.051   8.033  1.00  0.00    -0.228 NA
ATOM     75  O   PHE     8       8.534   7.256  10.116  1.00  0.00    -0.268 OA
BRANCH  74  76
ATOM     76  CA  TRP     9       9.578   8.856   8.075  1.00  0.00     0.191 C 
BRANCH  76  77
ATOM     77  CB  TRP     9      10.471   8.452   6.890  1.00  0.00     0.062 C 
BRANCH  77  78
ATOM     78  CG  TRP     9      11.820   7.877   7.321  1.00  0.00     0.001 A 
ATOM     79  CD1 TRP     9      12.956   8.557   7.440  1.00  0.00     0.095 A 
ATOM     80  NE1 TRP     9      13.975   7.712   7.541  1.00  0.00    -0.244 NA
ATOM     81  CE2 TRP     9      13.523   6.467   7.510  1.00  0.00     0.081 A 
ATOM     82  CD2 TRP     9      12.147   6.525   7.356  1.00  0.00     0.015 A 
ATOM     83  CZ2 TRP     9      14.163   5.228   7.491  1.00  0.00     0.019 A 
ATOM     84  CE3 TRP     9      11.404   5.369   7.170  1.00  0.00     0.001 A 
ATOM     85  CZ3 TRP     9      12.042   4.134   7.137  1.00  0.00     0.000 A 
ATOM     86  CH2 TRP     9      13.422   4.069   7.318  1.00  0.00     0.002 A 
ENDBRANCH  77  78
ENDBRANCH  76  77
BRANCH  76  87
ATOM     87  C   TRP     9       9.353  10.385   8.123  1.00  0.00     0.275 C 
ATOM     88  O   TRP     9      10.241  11.163   7.789  1.00  0.00    -0.268 OA
ATOM     89  N   GLY    10       8.125  10.788   8.446  1.00  0.00    -0.226 NA
BRANCH  89  90
ATOM     90  CA  GLY    10       7.699  12.213   8.504  1.00  0.00     0.218 C 
BRANCH  90  91
ATOM     91  C   GLY    10       7.082  12.794   7.221  1.00  0.00     0.277 C 
ATOM     92  N   CYS    11       7.770  13.790   6.666  1.00  0.00    -0.228 NA
ATOM     93  O   GLY    10       5.957  12.462   6.865  1.00  0.00    -0.268 OA
BRANCH  92  94
ATOM     94  CA  CYS    11       7.425  14.515   5.423  1.00  0.00     0.198 C 
BRANCH  94  95
ATOM     95  C   CYS    11       8.695  14.608   4.555  1.00  0.00     0.275 C 
ATOM     96  O   CYS    11       8.667  15.279   3.529  1.00  0.00    -0.268 OA
ATOM     97  N   GLY    12       9.683  13.788   4.879  1.00  0.00    -0.225 NA
BRANCH  97  98
ATOM     98  CA  GLY    12      10.957  13.737   4.146  1.00  0.00     0.226 C 
BRANCH  98  99
ATOM     99  C   GLY    12      11.307  12.251   3.898  1.00  0.00     0.211 C 
ATOM    100  O1  GLY    12      12.483  11.897   4.167  1.00  0.00    -0.646 OA
ATOM    101  O2  GLY    12      10.402  11.503   3.486  1.00  0.00    -0.646 OA
ENDBRANCH  98  99
ENDBRANCH  97  98
ENDBRANCH  94  95
BRANCH  94 102
ATOM    102  CB  CYS    11       7.039  15.956   5.745  1.00  0.00     0.103 C 
ATOM    103  SG  CYS    11       5.284  16.241   6.197  1.00  0.00    -0.080 SA
ENDBRANCH  94 102
ENDBRANCH  92  94
ENDBRANCH  90  91
ENDBRANCH  89  90
ENDBRANCH  76  87
ENDBRANCH  74  76
ENDBRANCH  65  73
ENDBRANCH  63  65
ENDBRANCH  61  62
BRANCH  61 104
ATOM    104  CB  ASN     7       3.685   9.813   8.141  1.00  0.00     0.126 C 
BRANCH 104 105
ATOM    105  CG  ASN     7       2.631  10.935   8.086  1.00  0.00     0.276 C 
ATOM    106  ND2 ASN     7       2.116  11.184   6.904  1.00  0.00    -0.107 N 
ATOM    107  OD1 ASN     7       2.364  11.693   9.009  1.00  0.00    -0.269 OA
ENDBRANCH 104 105
ENDBRANCH  61 104
ENDBRANCH  59  61
ENDBRANCH   1  58
TORSDOF 42
ENDMDL
MODEL 4
REMARK VINA RESULT:      -4.9      6.457     15.676
REMARK WARNING: 32 MAX_TORS EXCEEDED!!!
REMARK  42 active torsions:
REMARK  status: ('A' for Active; 'I' for Inactive)
REMARK    1  A    between atoms: CA_2  and  CB_3 
REMARK    2  A    between atoms: CA_2  and  C_11 
REMARK    3  A    between atoms: CB_3  and  CG_4 
REMARK       I    between atoms: C_11  and  N_13 
REMARK    4  A    between atoms: N_13  and  CA_14 
REMARK    5  A    between atoms: CA_14  and  CB_15 
REMARK    6  A    between atoms: CA_14  and  C_19 
REMARK    7  A    between atoms: CB_15  and  CG_16 
REMARK       I    between atoms: C_19  and  N_21 
REMARK    8  A    between atoms: CA_22  and  C_26 
REMARK       I    between atoms: C_26  and  N_28 
REMARK    9  A    between atoms: N_28  and  CA_29 
REMARK   10  A    between atoms: CA_29  and  C_35 
REMARK   11  A    between atoms: CA_29  and  CB_30 
REMARK   12  A    between atoms: CB_30  and  CG_31 
REMARK   13  A    between atoms: CG_31  and  CD_32 
REMARK       I    between atoms: C_35  and  N_37 
REMARK   14  A    between atoms: N_37  and  CA_38 
REMARK   15  A    between atoms: CA_38  and  CB_39 
REMARK   16  A    between atoms: CA_38  and  C_47 
REMARK   17  A    between atoms: CB_39  and  CG_40 
REMARK       I    between atoms: C_47  and  N_49 
REMARK   18  A    between atoms: N_49  and  CA_50 
REMARK   19  A    between atoms: CA_50  and  CB_51 
REMARK   20  A    between atoms: CA_50  and  C_58 
REMARK   21  A    between atoms: CB_51  and  CG_52 
REMARK   22  A    between atoms: CG_52  and  CD_53 
REMARK   23  A    between atoms: CD_53  and  NE_54 
REMARK       I    between atoms: C_58  and  N_60 
REMARK   24  A    between atoms: N_60  and  CA_61 
REMARK   25  A    between atoms: CA_61  and  C_66 
REMARK   26  A    between atoms: CA_61  and  CB_62 
REMARK   27  A    between atoms: CB_62  and  CG_63 
REMARK       I    between atoms: C_66  and  N_68 
REMARK   28  A    between atoms: N_68  and  CA_69 
REMARK   29  A    between atoms: CA_69  and  CB_70 
REMARK   30  A    between atoms: CA_69  and  C_77 
REMARK   31  A    between atoms: CB_70  and  CG_71 
REMARK       I    between atoms: C_77  and  N_79 
REMARK   32  A    between atoms: N_79  and  CA_80 
REMARK   33  A    between atoms: CA_80  and  CB_81 
REMARK   34  A    between atoms: CA_80  and  C_91 
REMARK   35  A    between atoms: CB_81  and  CG_82 
REMARK       I    between atoms: C_91  and  N_93 
REMARK   36  A    between atoms: N_93  and  CA_94 
REMARK   37  A    between atoms: CA_94  and  C_95 
REMARK       I    between atoms: C_95  and  N_97 
REMARK   38  A    between atoms: N_97  and  CA_98 
REMARK   39  A    between atoms: CA_98  and  C_101 
REMARK   40  A    between atoms: CA_98  and  CB_99 
REMARK       I    between atoms: C_101  and  N_103 
REMARK   41  A    between atoms: N_103  and  CA_104 
REMARK   42  A    between atoms: CA_104  and  C_105 
ROOT
ATOM      1  CA  ARG     6       0.021   7.053   8.021  1.00  0.00     0.186 C 
ENDROOT
BRANCH   1   2
ATOM      2  N   ARG     6      -0.847   8.194   7.647  1.00  0.00    -0.229 NA
ATOM      3  C   TYR     5      -1.335   9.052   8.552  1.00  0.00     0.275 C 
ATOM      4  O   TYR     5      -1.072   8.964   9.752  1.00  0.00    -0.268 OA
BRANCH   3   5
ATOM      5  CA  TYR     5      -2.161  10.236   8.022  1.00  0.00     0.191 C 
BRANCH   5   6
ATOM      6  N   TYR     5      -1.755  11.545   8.596  1.00  0.00    -0.228 NA
ATOM      7  C   GLU     4      -0.519  12.054   8.463  1.00  0.00     0.274 C 
ATOM      8  O   GLU     4       0.329  11.546   7.741  1.00  0.00    -0.268 OA
BRANCH   7   9
ATOM      9  CA  GLU     4      -0.315  13.485   8.999  1.00  0.00     0.187 C 
BRANCH   9  10
ATOM     10  CB  GLU     4      -1.670  14.091   9.399  1.00  0.00     0.045 C 
BRANCH  10  11
ATOM     11  CG  GLU     4      -2.202  15.228   8.499  1.00  0.00     0.100 C 
BRANCH  11  12
ATOM     12  CD  GLU     4      -3.724  15.269   8.370  1.00  0.00     0.185 C 
ATOM     13  OE1 GLU     4      -4.394  14.649   9.237  1.00  0.00    -0.647 OA
ATOM     14  OE2 GLU     4      -4.185  15.481   7.231  1.00  0.00    -0.647 OA
ENDBRANCH  11  12
ENDBRANCH  10  11
ENDBRANCH   9  10
BRANCH   9  15
ATOM     15  N   GLU     4       0.335  14.384   8.027  1.00  0.00    -0.229 NA
ATOM     16  C   PRO     3       1.477  15.049   8.160  1.00  0.00     0.272 C 
ATOM     17  O   PRO     3       2.355  14.730   8.963  1.00  0.00    -0.269 OA
BRANCH  16  18
ATOM     18  CA  PRO     3       1.878  15.906   6.957  1.00  0.00     0.165 C 
ATOM     19  N   PRO     3       2.262  17.295   7.285  1.00  0.00    -0.312 N 
ATOM     20  CD  PRO     3       3.432  17.697   6.463  1.00  0.00     0.105 C 
ATOM     21  C   ASP     2       1.548  18.102   8.091  1.00  0.00     0.257 C 
ATOM     22  CG  PRO     3       3.601  16.547   5.457  1.00  0.00     0.027 C 
ATOM     23  CB  PRO     3       3.076  15.327   6.209  1.00  0.00     0.034 C 
ATOM     24  O   ASP     2       0.401  17.785   8.438  1.00  0.00    -0.270 OA
BRANCH  21  25
ATOM     25  CA  ASP     2       2.000  19.566   8.295  1.00  0.00     0.195 C 
BRANCH  25  26
ATOM     26  CB  ASP     2       2.202  20.027   9.762  1.00  0.00     0.132 C 
BRANCH  26  27
ATOM     27  CG  ASP     2       3.534  20.785   9.909  1.00  0.00     0.188 C 
ATOM     28  OD2 ASP     2       3.450  22.039   9.884  1.00  0.00    -0.647 OA
ATOM     29  OD1 ASP     2       4.562  20.208   9.474  1.00  0.00    -0.647 OA
ENDBRANCH  26  27
ENDBRANCH  25  26
BRANCH  25  30
ATOM     30  N   ASP     2       1.004  20.528   7.793  1.00  0.00    -0.228 NA
ATOM     31  C   TYR     1       1.177  21.410   6.836  1.00  0.00     0.289 C 
ATOM     32  O   TYR     1       2.143  21.528   6.076  1.00  0.00    -0.268 OA
BRANCH  31  33
ATOM     33  CA  TYR     1       0.004  22.380   6.735  1.00  0.00     0.385 C 
ATOM     34  N   TYR     1       0.133  23.112   5.464  1.00  0.00     0.626 N 
BRANCH  33  35
ATOM     35  CB  TYR     1      -1.278  21.553   6.805  1.00  0.00     0.075 C 
BRANCH  35  36
ATOM     36  CG  TYR     1      -2.333  22.159   7.743  1.00  0.00    -0.019 A 
ATOM     37  CD2 TYR     1      -3.629  22.399   7.313  1.00  0.00    -0.002 A 
ATOM     38  CE2 TYR     1      -4.596  22.818   8.214  1.00  0.00     0.027 A 
ATOM     39  CZ  TYR     1      -4.246  23.001   9.552  1.00  0.00     0.131 A 
ATOM     40  CE1 TYR     1      -2.941  22.800   9.965  1.00  0.00     0.027 A 
ATOM     41  OH  TYR     1      -5.200  23.225  10.478  1.00  0.00    -0.190 OA
ATOM     42  CD1 TYR     1      -1.974  22.381   9.064  1.00  0.00    -0.002 A 
ENDBRANCH  35  36
ENDBRANCH  33  35
ENDBRANCH  31  33
ENDBRANCH  25  30
ENDBRANCH  21  25
ENDBRANCH  16  18
ENDBRANCH   9  15
ENDBRANCH   7   9
ENDBRANCH   5   6
BRANCH   5  43
ATOM     43  CB  TYR     5      -2.113  10.295   6.486  1.00  0.00     0.060 C 
BRANCH  43  44
ATOM     44  CG  TYR     5      -3.462   9.929   5.845  1.00  0.00    -0.020 A 
ATOM     45  CD2 TYR     5      -4.633   9.972   6.591  1.00  0.00    -0.002 A 
ATOM     46  CE2 TYR     5      -5.850   9.646   6.000  1.00  0.00     0.027 A 
ATOM     47  CZ  TYR     5      -5.897   9.279   4.664  1.00  0.00     0.131 A 
ATOM     48  CE1 TYR     5      -4.731   9.251   3.907  1.00  0.00     0.027 A 
ATOM     49  OH  TYR     5      -7.049   8.828   4.122  1.00  0.00    -0.190 OA
ATOM     50  CD1 TYR     5      -3.511   9.569   4.503  1.00  0.00    -0.002 A 
ENDBRANCH  43  44
ENDBRANCH   5  43
ENDBRANCH   3   5
ENDBRANCH   1   2
BRANCH   1  51
ATOM     51  CB  ARG     6      -0.524   5.711   7.540  1.00  0.00     0.036 C 
BRANCH  51  52
ATOM     52  CG  ARG     6      -2.042   5.577   7.683  1.00  0.00     0.029 C 
BRANCH  52  53
ATOM     53  CD  ARG     6      -2.459   4.114   7.562  1.00  0.00     0.145 C 
BRANCH  53  54
ATOM     54  NE  ARG     6      -3.299   3.902   6.371  1.00  0.00    -0.083 NA
ATOM     55  CZ  ARG     6      -4.580   3.486   6.382  1.00  0.00     0.782 C 
ATOM     56  NH2 ARG     6      -5.224   3.245   5.239  1.00  0.00     0.063 N 
ATOM     57  NH1 ARG     6      -5.191   3.229   7.533  1.00  0.00     0.063 N 
ENDBRANCH  53  54
ENDBRANCH  52  53
ENDBRANCH  51  52
ENDBRANCH   1  51
BRANCH   1  58
ATOM     58  C   ARG     6       1.439   7.181   7.450  1.00  0.00     0.274 C 
ATOM     59  N   ASN     7       2.244   8.023   8.091  1.00  0.00    -0.228 NA
ATOM     60  O   ARG     6       1.749   6.523   6.456  1.00  0.00    -0.268 OA
BRANCH  59  61
ATOM     61  CA  ASN     7       3.670   8.206   7.749  1.00  0.00     0.196 C 
BRANCH  61  62
ATOM     62  C   ASN     7       4.559   7.156   8.445  1.00  0.00     0.275 C 
ATOM     63  N   PHE     8       5.791   6.976   7.945  1.00  0.00    -0.228 NA
ATOM     64  O   ASN     7       4.267   6.853   9.586  1.00  0.00    -0.268 OA
BRANCH  63  65
ATOM     65  CA  PHE     8       6.819   6.078   8.527  1.00  0.00     0.191 C 
BRANCH  65  66
ATOM     66  CB  PHE     8       6.674   4.696   7.875  1.00  0.00     0.060 C 
BRANCH  66  67
ATOM     67  CG  PHE     8       7.598   3.614   8.466  1.00  0.00    -0.020 A 
ATOM     68  CD1 PHE     8       8.501   2.952   7.646  1.00  0.00    -0.004 A 
ATOM     69  CE1 PHE     8       9.265   1.904   8.159  1.00  0.00    -0.000 A 
ATOM     70  CZ  PHE     8       9.128   1.539   9.489  1.00  0.00    -0.000 A 
ATOM     71  CE2 PHE     8       8.233   2.210  10.315  1.00  0.00    -0.000 A 
ATOM     72  CD2 PHE     8       7.469   3.259   9.802  1.00  0.00    -0.004 A 
ENDBRANCH  66  67
ENDBRANCH  65  66
BRANCH  65  73
ATOM     73  C   PHE     8       8.269   6.603   8.436  1.00  0.00     0.275 C 
ATOM     74  N   TRP     9       8.693   6.973   7.226  1.00  0.00    -0.228 NA
ATOM     75  O   PHE     8       9.059   6.447   9.371  1.00  0.00    -0.268 OA
BRANCH  74  76
ATOM     76  CA  TRP     9      10.017   7.608   7.016  1.00  0.00     0.191 C 
BRANCH  76  77
ATOM     77  CB  TRP     9      10.186   8.750   8.032  1.00  0.00     0.062 C 
BRANCH  77  78
ATOM     78  CG  TRP     9       9.856  10.125   7.454  1.00  0.00     0.001 A 
ATOM     79  CD1 TRP     9       8.741  10.816   7.673  1.00  0.00     0.095 A 
ATOM     80  NE1 TRP     9       8.652  11.811   6.799  1.00  0.00    -0.244 NA
ATOM     81  CE2 TRP     9       9.714  11.801   6.007  1.00  0.00     0.081 A 
ATOM     82  CD2 TRP     9      10.506  10.728   6.382  1.00  0.00     0.015 A 
ATOM     83  CZ2 TRP     9      10.067  12.556   4.889  1.00  0.00     0.019 A 
ATOM     84  CE3 TRP     9      11.634  10.388   5.650  1.00  0.00     0.001 A 
ATOM     85  CZ3 TRP     9      11.981  11.131   4.527  1.00  0.00     0.000 A 
ATOM     86  CH2 TRP     9      11.202  12.227   4.162  1.00  0.00     0.002 A 
ENDBRANCH  77  78
ENDBRANCH  76  77
BRANCH  76  87
ATOM     87  C   TRP     9      11.212   6.629   7.053  1.00  0.00     0.275 C 
ATOM     88  O   TRP     9      12.297   6.976   7.511  1.00  0.00    -0.268 OA
ATOM     89  N   GLY    10      10.962   5.381   6.660  1.00  0.00    -0.226 NA
BRANCH  89  90
ATOM     90  CA  GLY    10      11.968   4.284   6.664  1.00  0.00     0.218 C 
BRANCH  90  91
ATOM     91  C   GLY    10      12.225   3.588   5.318  1.00  0.00     0.277 C 
ATOM     92  N   CYS    11      13.509   3.468   4.982  1.00  0.00    -0.228 NA
ATOM     93  O   GLY    10      11.296   3.336   4.559  1.00  0.00    -0.268 OA
BRANCH  92  94
ATOM     94  CA  CYS    11      14.044   2.825   3.761  1.00  0.00     0.198 C 
BRANCH  94  95
ATOM     95  C   CYS    11      14.264   1.330   4.064  1.00  0.00     0.275 C 
ATOM     96  O   CYS    11      15.389   0.941   4.358  1.00  0.00    -0.268 OA
ATOM     97  N   GLY    12      13.247   0.526   3.791  1.00  0.00    -0.225 NA
BRANCH  97  98
ATOM     98  CA  GLY    12      13.296  -0.929   4.007  1.00  0.00     0.226 C 
BRANCH  98  99
ATOM     99  C   GLY    12      11.844  -1.461   4.004  1.00  0.00     0.211 C 
ATOM    100  O1  GLY    12      10.931  -0.609   4.146  1.00  0.00    -0.646 OA
ATOM    101  O2  GLY    12      11.673  -2.681   3.826  1.00  0.00    -0.646 OA
ENDBRANCH  98  99
ENDBRANCH  97  98
ENDBRANCH  94  95
BRANCH  94 102
ATOM    102  CB  CYS    11      15.426   3.387   3.434  1.00  0.00     0.103 C 
ATOM    103  SG  CYS    11      16.102   4.611   4.620  1.00  0.00    -0.080 SA
ENDBRANCH  94 102
ENDBRANCH  92  94
ENDBRANCH  90  91
ENDBRANCH  89  90
ENDBRANCH  76  87
ENDBRANCH  74  76
ENDBRANCH  65  73
ENDBRANCH  63  65
ENDBRANCH  61  62
BRANCH  61 104
ATOM    104  CB  ASN     7       4.145   9.627   8.078  1.00  0.00     0.126 C 
BRANCH 104 105
ATOM    105  CG  ASN     7       3.768  10.693   7.033  1.00  0.00     0.276 C 
ATOM    106  ND2 ASN     7       3.937  11.943   7.398  1.00  0.00    -0.107 N 
ATOM    107  OD1 ASN     7       3.192  10.469   5.976  1.00  0.00    -0.269 OA
ENDBRANCH 104 105
ENDBRANCH  61 104
ENDBRANCH  59  61
ENDBRANCH   1  58
TORSDOF 42
ENDMDL
MODEL 5
REMARK VINA RESULT:      -4.8      2.406      3.343
REMARK WARNING: 32 MAX_TORS EXCEEDED!!!
REMARK  42 active torsions:
REMARK  status: ('A' for Active; 'I' for Inactive)
REMARK    1  A    between atoms: CA_2  and  CB_3 
REMARK    2  A    between atoms: CA_2  and  C_11 
REMARK    3  A    between atoms: CB_3  and  CG_4 
REMARK       I    between atoms: C_11  and  N_13 
REMARK    4  A    between atoms: N_13  and  CA_14 
REMARK    5  A    between atoms: CA_14  and  CB_15 
REMARK    6  A    between atoms: CA_14  and  C_19 
REMARK    7  A    between atoms: CB_15  and  CG_16 
REMARK       I    between atoms: C_19  and  N_21 
REMARK    8  A    between atoms: CA_22  and  C_26 
REMARK       I    between atoms: C_26  and  N_28 
REMARK    9  A    between atoms: N_28  and  CA_29 
REMARK   10  A    between atoms: CA_29  and  C_35 
REMARK   11  A    between atoms: CA_29  and  CB_30 
REMARK   12  A    between atoms: CB_30  and  CG_31 
REMARK   13  A    between atoms: CG_31  and  CD_32 
REMARK       I    between atoms: C_35  and  N_37 
REMARK   14  A    between atoms: N_37  and  CA_38 
REMARK   15  A    between atoms: CA_38  and  CB_39 
REMARK   16  A    between atoms: CA_38  and  C_47 
REMARK   17  A    between atoms: CB_39  and  CG_40 
REMARK       I    between atoms: C_47  and  N_49 
REMARK   18  A    between atoms: N_49  and  CA_50 
REMARK   19  A    between atoms: CA_50  and  CB_51 
REMARK   20  A    between atoms: CA_50  and  C_58 
REMARK   21  A    between atoms: CB_51  and  CG_52 
REMARK   22  A    between atoms: CG_52  and  CD_53 
REMARK   23  A    between atoms: CD_53  and  NE_54 
REMARK       I    between atoms: C_58  and  N_60 
REMARK   24  A    between atoms: N_60  and  CA_61 
REMARK   25  A    between atoms: CA_61  and  C_66 
REMARK   26  A    between atoms: CA_61  and  CB_62 
REMARK   27  A    between atoms: CB_62  and  CG_63 
REMARK       I    between atoms: C_66  and  N_68 
REMARK   28  A    between atoms: N_68  and  CA_69 
REMARK   29  A    between atoms: CA_69  and  CB_70 
REMARK   30  A    between atoms: CA_69  and  C_77 
REMARK   31  A    between atoms: CB_70  and  CG_71 
REMARK       I    between atoms: C_77  and  N_79 
REMARK   32  A    between atoms: N_79  and  CA_80 
REMARK   33  A    between atoms: CA_80  and  CB_81 
REMARK   34  A    between atoms: CA_80  and  C_91 
REMARK   35  A    between atoms: CB_81  and  CG_82 
REMARK       I    between atoms: C_91  and  N_93 
REMARK   36  A    between atoms: N_93  and  CA_94 
REMARK   37  A    between atoms: CA_94  and  C_95 
REMARK       I    between atoms: C_95  and  N_97 
REMARK   38  A    between atoms: N_97  and  CA_98 
REMARK   39  A    between atoms: CA_98  and  C_101 
REMARK   40  A    between atoms: CA_98  and  CB_99 
REMARK       I    between atoms: C_101  and  N_103 
REMARK   41  A    between atoms: N_103  and  CA_104 
REMARK   42  A    between atoms: CA_104  and  C_105 
ROOT
ATOM      1  CA  ARG     6       0.014   6.871   9.248  1.00  0.00     0.186 C 
ENDROOT
BRANCH   1   2
ATOM      2  N   ARG     6      -1.177   6.332   8.551  1.00  0.00    -0.229 NA
ATOM      3  C   TYR     5      -2.382   6.269   9.133  1.00  0.00     0.275 C 
ATOM      4  O   TYR     5      -2.584   6.683  10.275  1.00  0.00    -0.268 OA
BRANCH   3   5
ATOM      5  CA  TYR     5      -3.549   5.757   8.274  1.00  0.00     0.191 C 
BRANCH   5   6
ATOM      6  N   TYR     5      -4.084   4.446   8.722  1.00  0.00    -0.228 NA
ATOM      7  C   GLU     4      -4.630   3.550   7.883  1.00  0.00     0.274 C 
ATOM      8  O   GLU     4      -4.602   3.683   6.666  1.00  0.00    -0.268 OA
BRANCH   7   9
ATOM      9  CA  GLU     4      -5.004   2.186   8.498  1.00  0.00     0.187 C 
BRANCH   9  10
ATOM     10  CB  GLU     4      -4.144   1.077   7.869  1.00  0.00     0.045 C 
BRANCH  10  11
ATOM     11  CG  GLU     4      -3.064   0.452   8.779  1.00  0.00     0.100 C 
BRANCH  11  12
ATOM     12  CD  GLU     4      -1.999   1.436   9.260  1.00  0.00     0.185 C 
ATOM     13  OE1 GLU     4      -1.298   2.003   8.382  1.00  0.00    -0.647 OA
ATOM     14  OE2 GLU     4      -1.571   1.276  10.421  1.00  0.00    -0.647 OA
ENDBRANCH  11  12
ENDBRANCH  10  11
ENDBRANCH   9  10
BRANCH   9  15
ATOM     15  N   GLU     4      -6.426   1.837   8.319  1.00  0.00    -0.229 NA
ATOM     16  C   PRO     3      -7.070   0.764   8.765  1.00  0.00     0.272 C 
ATOM     17  O   PRO     3      -6.670   0.079   9.708  1.00  0.00    -0.269 OA
BRANCH  16  18
ATOM     18  CA  PRO     3      -8.555   0.697   8.405  1.00  0.00     0.165 C 
ATOM     19  N   PRO     3      -8.937  -0.448   7.551  1.00  0.00    -0.312 N 
ATOM     20  CD  PRO     3     -10.236  -1.002   8.010  1.00  0.00     0.105 C 
ATOM     21  C   ASP     2      -8.272  -0.811   6.439  1.00  0.00     0.257 C 
ATOM     22  CG  PRO     3     -10.731   0.010   9.056  1.00  0.00     0.027 C 
ATOM     23  CB  PRO     3      -9.446   0.587   9.641  1.00  0.00     0.034 C 
ATOM     24  O   ASP     2      -7.413  -0.061   5.950  1.00  0.00    -0.270 OA
BRANCH  21  25
ATOM     25  CA  ASP     2      -8.812  -1.973   5.575  1.00  0.00     0.195 C 
BRANCH  25  26
ATOM     26  CB  ASP     2     -10.354  -2.107   5.487  1.00  0.00     0.132 C 
BRANCH  26  27
ATOM     27  CG  ASP     2     -10.796  -2.279   4.022  1.00  0.00     0.188 C 
ATOM     28  OD2 ASP     2     -11.391  -1.293   3.516  1.00  0.00    -0.647 OA
ATOM     29  OD1 ASP     2     -11.068  -3.447   3.648  1.00  0.00    -0.647 OA
ENDBRANCH  26  27
ENDBRANCH  25  26
BRANCH  25  30
ATOM     30  N   ASP     2      -8.407  -3.288   6.101  1.00  0.00    -0.228 NA
ATOM     31  C   TYR     1      -7.355  -3.986   5.742  1.00  0.00     0.289 C 
ATOM     32  O   TYR     1      -6.426  -3.639   5.006  1.00  0.00    -0.268 OA
BRANCH  31  33
ATOM     33  CA  TYR     1      -7.373  -5.391   6.336  1.00  0.00     0.385 C 
ATOM     34  N   TYR     1      -8.037  -5.318   7.648  1.00  0.00     0.626 N 
BRANCH  33  35
ATOM     35  CB  TYR     1      -8.119  -6.291   5.353  1.00  0.00     0.075 C 
BRANCH  35  36
ATOM     36  CG  TYR     1      -9.315  -7.016   5.990  1.00  0.00    -0.019 A 
ATOM     37  CD2 TYR     1     -10.600  -6.505   5.900  1.00  0.00    -0.002 A 
ATOM     38  CE2 TYR     1     -11.678  -7.243   6.365  1.00  0.00     0.027 A 
ATOM     39  CZ  TYR     1     -11.451  -8.499   6.927  1.00  0.00     0.131 A 
ATOM     40  CE1 TYR     1     -10.162  -8.984   7.051  1.00  0.00     0.027 A 
ATOM     41  OH  TYR     1     -12.488  -9.312   7.213  1.00  0.00    -0.190 OA
ATOM     42  CD1 TYR     1      -9.084  -8.246   6.587  1.00  0.00    -0.002 A 
ENDBRANCH  35  36
ENDBRANCH  33  35
ENDBRANCH  31  33
ENDBRANCH  25  30
ENDBRANCH  21  25
ENDBRANCH  16  18
ENDBRANCH   9  15
ENDBRANCH   7   9
ENDBRANCH   5   6
BRANCH   5  43
ATOM     43  CB  TYR     5      -4.682   6.796   8.212  1.00  0.00     0.060 C 
BRANCH  43  44
ATOM     44  CG  TYR     5      -4.665   7.600   6.901  1.00  0.00    -0.020 A 
ATOM     45  CD2 TYR     5      -4.246   7.010   5.715  1.00  0.00    -0.002 A 
ATOM     46  CE2 TYR     5      -4.241   7.744   4.533  1.00  0.00     0.027 A 
ATOM     47  CZ  TYR     5      -4.655   9.067   4.536  1.00  0.00     0.131 A 
ATOM     48  CE1 TYR     5      -5.093   9.659   5.715  1.00  0.00     0.027 A 
ATOM     49  OH  TYR     5      -4.522   9.824   3.425  1.00  0.00    -0.190 OA
ATOM     50  CD1 TYR     5      -5.088   8.924   6.901  1.00  0.00    -0.002 A 
ENDBRANCH  43  44
ENDBRANCH   5  43
ENDBRANCH   3   5
ENDBRANCH   1   2
BRANCH   1  51
ATOM     51  CB  ARG     6       0.690   5.843  10.150  1.00  0.00     0.036 C 
BRANCH  51  52
ATOM     52  CG  ARG     6       1.474   4.775   9.384  1.00  0.00     0.029 C 
BRANCH  52  53
ATOM     53  CD  ARG     6       1.339   3.420  10.074  1.00  0.00     0.145 C 
BRANCH  53  54
ATOM     54  NE  ARG     6       2.661   2.850  10.382  1.00  0.00    -0.083 NA
ATOM     55  CZ  ARG     6       3.153   1.702   9.879  1.00  0.00     0.782 C 
ATOM     56  NH2 ARG     6       4.333   1.233  10.291  1.00  0.00     0.063 N 
ATOM     57  NH1 ARG     6       2.432   0.977   9.031  1.00  0.00     0.063 N 
ENDBRANCH  53  54
ENDBRANCH  52  53
ENDBRANCH  51  52
ENDBRANCH   1  51
BRANCH   1  58
ATOM     58  C   ARG     6       1.087   7.372   8.273  1.00  0.00     0.274 C 
ATOM     59  N   ASN     7       2.119   8.005   8.826  1.00  0.00    -0.228 NA
ATOM     60  O   ARG     6       0.943   7.174   7.066  1.00  0.00    -0.268 OA
BRANCH  59  61
ATOM     61  CA  ASN     7       3.293   8.471   8.060  1.00  0.00     0.196 C 
BRANCH  61  62
ATOM     62  C   ASN     7       4.408   7.407   8.028  1.00  0.00     0.275 C 
ATOM     63  N   PHE     8       5.426   7.567   8.887  1.00  0.00    -0.228 NA
ATOM     64  O   ASN     7       4.130   6.329   7.540  1.00  0.00    -0.268 OA
BRANCH  63  65
ATOM     65  CA  PHE     8       6.543   6.609   9.065  1.00  0.00     0.191 C 
BRANCH  65  66
ATOM     66  CB  PHE     8       6.649   5.752   7.796  1.00  0.00     0.060 C 
BRANCH  66  67
ATOM     67  CG  PHE     8       7.691   4.621   7.877  1.00  0.00    -0.020 A 
ATOM     68  CD1 PHE     8       8.842   4.682   7.103  1.00  0.00    -0.004 A 
ATOM     69  CE1 PHE     8       9.735   3.610   7.100  1.00  0.00    -0.000 A 
ATOM     70  CZ  PHE     8       9.475   2.497   7.882  1.00  0.00    -0.000 A 
ATOM     71  CE2 PHE     8       8.329   2.439   8.669  1.00  0.00    -0.000 A 
ATOM     72  CD2 PHE     8       7.437   3.511   8.672  1.00  0.00    -0.004 A 
ENDBRANCH  66  67
ENDBRANCH  65  66
BRANCH  65  73
ATOM     73  C   PHE     8       7.900   7.250   9.436  1.00  0.00     0.275 C 
ATOM     74  N   TRP     9       8.344   8.211   8.625  1.00  0.00    -0.228 NA
ATOM     75  O   PHE     8       8.638   6.730  10.277  1.00  0.00    -0.268 OA
BRANCH  74  76
ATOM     76  CA  TRP     9       9.566   8.995   8.928  1.00  0.00     0.191 C 
BRANCH  76  77
ATOM     77  CB  TRP     9      10.449   9.043   7.670  1.00  0.00     0.062 C 
BRANCH  77  78
ATOM     78  CG  TRP     9      11.776   8.303   7.837  1.00  0.00     0.001 A 
ATOM     79  CD1 TRP     9      12.801   8.696   8.587  1.00  0.00     0.095 A 
ATOM     80  NE1 TRP     9      13.881   7.991   8.276  1.00  0.00    -0.244 NA
ATOM     81  CE2 TRP     9      13.579   7.111   7.333  1.00  0.00     0.081 A 
ATOM     82  CD2 TRP     9      12.242   7.285   7.011  1.00  0.00     0.015 A 
ATOM     83  CZ2 TRP     9      14.347   6.206   6.602  1.00  0.00     0.019 A 
ATOM     84  CE3 TRP     9      11.666   6.582   5.963  1.00  0.00     0.001 A 
ATOM     85  CZ3 TRP     9      12.434   5.688   5.224  1.00  0.00     0.000 A 
ATOM     86  CH2 TRP     9      13.772   5.491   5.562  1.00  0.00     0.002 A 
ENDBRANCH  77  78
ENDBRANCH  76  77
BRANCH  76  87
ATOM     87  C   TRP     9       9.298  10.410   9.490  1.00  0.00     0.275 C 
ATOM     88  O   TRP     9      10.175  11.027  10.087  1.00  0.00    -0.268 OA
ATOM     89  N   GLY    10       8.112  10.942   9.201  1.00  0.00    -0.226 NA
BRANCH  89  90
ATOM     90  CA  GLY    10       7.683  12.307   9.614  1.00  0.00     0.218 C 
BRANCH  90  91
ATOM     91  C   GLY    10       8.408  13.483   8.940  1.00  0.00     0.277 C 
ATOM     92  N   CYS    11       8.239  13.568   7.622  1.00  0.00    -0.228 NA
ATOM     93  O   GLY    10       9.210  14.163   9.569  1.00  0.00    -0.268 OA
BRANCH  92  94
ATOM     94  CA  CYS    11       8.798  14.606   6.726  1.00  0.00     0.198 C 
BRANCH  94  95
ATOM     95  C   CYS    11       7.899  15.854   6.821  1.00  0.00     0.275 C 
ATOM     96  O   CYS    11       8.414  16.965   6.761  1.00  0.00    -0.268 OA
ATOM     97  N   GLY    12       6.637  15.638   7.163  1.00  0.00    -0.225 NA
BRANCH  97  98
ATOM     98  CA  GLY    12       5.651  16.720   7.314  1.00  0.00     0.226 C 
BRANCH  98  99
ATOM     99  C   GLY    12       5.028  16.995   5.926  1.00  0.00     0.211 C 
ATOM    100  O1  GLY    12       5.157  18.160   5.471  1.00  0.00    -0.646 OA
ATOM    101  O2  GLY    12       4.476  16.046   5.339  1.00  0.00    -0.646 OA
ENDBRANCH  98  99
ENDBRANCH  97  98
ENDBRANCH  94  95
BRANCH  94 102
ATOM    102  CB  CYS    11       8.713  14.147   5.272  1.00  0.00     0.103 C 
ATOM    103  SG  CYS    11      10.165  14.528   4.218  1.00  0.00    -0.080 SA
ENDBRANCH  94 102
ENDBRANCH  92  94
ENDBRANCH  90  91
ENDBRANCH  89  90
ENDBRANCH  76  87
ENDBRANCH  74  76
ENDBRANCH  65  73
ENDBRANCH  63  65
ENDBRANCH  61  62
BRANCH  61 104
ATOM    104  CB  ASN     7       3.825   9.801   8.611  1.00  0.00     0.126 C 
BRANCH 104 105
ATOM    105  CG  ASN     7       2.739  10.827   8.983  1.00  0.00     0.276 C 
ATOM    106  ND2 ASN     7       2.079  11.358   7.979  1.00  0.00    -0.107 N 
ATOM    107  OD1 ASN     7       2.561  11.287  10.104  1.00  0.00    -0.269 OA
ENDBRANCH 104 105
ENDBRANCH  61 104
ENDBRANCH  59  61
ENDBRANCH   1  58
TORSDOF 42
ENDMDL
MODEL 6
REMARK VINA RESULT:      -4.6      1.901      2.826
REMARK WARNING: 32 MAX_TORS EXCEEDED!!!
REMARK  42 active torsions:
REMARK  status: ('A' for Active; 'I' for Inactive)
REMARK    1  A    between atoms: CA_2  and  CB_3 
REMARK    2  A    between atoms: CA_2  and  C_11 
REMARK    3  A    between atoms: CB_3  and  CG_4 
REMARK       I    between atoms: C_11  and  N_13 
REMARK    4  A    between atoms: N_13  and  CA_14 
REMARK    5  A    between atoms: CA_14  and  CB_15 
REMARK    6  A    between atoms: CA_14  and  C_19 
REMARK    7  A    between atoms: CB_15  and  CG_16 
REMARK       I    between atoms: C_19  and  N_21 
REMARK    8  A    between atoms: CA_22  and  C_26 
REMARK       I    between atoms: C_26  and  N_28 
REMARK    9  A    between atoms: N_28  and  CA_29 
REMARK   10  A    between atoms: CA_29  and  C_35 
REMARK   11  A    between atoms: CA_29  and  CB_30 
REMARK   12  A    between atoms: CB_30  and  CG_31 
REMARK   13  A    between atoms: CG_31  and  CD_32 
REMARK       I    between atoms: C_35  and  N_37 
REMARK   14  A    between atoms: N_37  and  CA_38 
REMARK   15  A    between atoms: CA_38  and  CB_39 
REMARK   16  A    between atoms: CA_38  and  C_47 
REMARK   17  A    between atoms: CB_39  and  CG_40 
REMARK       I    between atoms: C_47  and  N_49 
REMARK   18  A    between atoms: N_49  and  CA_50 
REMARK   19  A    between atoms: CA_50  and  CB_51 
REMARK   20  A    between atoms: CA_50  and  C_58 
REMARK   21  A    between atoms: CB_51  and  CG_52 
REMARK   22  A    between atoms: CG_52  and  CD_53 
REMARK   23  A    between atoms: CD_53  and  NE_54 
REMARK       I    between atoms: C_58  and  N_60 
REMARK   24  A    between atoms: N_60  and  CA_61 
REMARK   25  A    between atoms: CA_61  and  C_66 
REMARK   26  A    between atoms: CA_61  and  CB_62 
REMARK   27  A    between atoms: CB_62  and  CG_63 
REMARK       I    between atoms: C_66  and  N_68 
REMARK   28  A    between atoms: N_68  and  CA_69 
REMARK   29  A    between atoms: CA_69  and  CB_70 
REMARK   30  A    between atoms: CA_69  and  C_77 
REMARK   31  A    between atoms: CB_70  and  CG_71 
REMARK       I    between atoms: C_77  and  N_79 
REMARK   32  A    between atoms: N_79  and  CA_80 
REMARK   33  A    between atoms: CA_80  and  CB_81 
REMARK   34  A    between atoms: CA_80  and  C_91 
REMARK   35  A    between atoms: CB_81  and  CG_82 
REMARK       I    between atoms: C_91  and  N_93 
REMARK   36  A    between atoms: N_93  and  CA_94 
REMARK   37  A    between atoms: CA_94  and  C_95 
REMARK       I    between atoms: C_95  and  N_97 
REMARK   38  A    between atoms: N_97  and  CA_98 
REMARK   39  A    between atoms: CA_98  and  C_101 
REMARK   40  A    between atoms: CA_98  and  CB_99 
REMARK       I    between atoms: C_101  and  N_103 
REMARK   41  A    between atoms: N_103  and  CA_104 
REMARK   42  A    between atoms: CA_104  and  C_105 
ROOT
ATOM      1  CA  ARG     6       0.901   5.722   9.618  1.00  0.00     0.186 C 
ENDROOT
BRANCH   1   2
ATOM      2  N   ARG     6      -0.461   5.606   9.047  1.00  0.00    -0.229 NA
ATOM      3  C   TYR     5      -1.394   6.552   9.216  1.00  0.00     0.275 C 
ATOM      4  O   TYR     5      -1.171   7.594   9.834  1.00  0.00    -0.268 OA
BRANCH   3   5
ATOM      5  CA  TYR     5      -2.742   6.342   8.508  1.00  0.00     0.191 C 
BRANCH   5   6
ATOM      6  N   TYR     5      -3.411   5.065   8.872  1.00  0.00    -0.228 NA
ATOM      7  C   GLU     4      -3.848   4.180   7.961  1.00  0.00     0.274 C 
ATOM      8  O   GLU     4      -3.606   4.288   6.766  1.00  0.00    -0.268 OA
BRANCH   7   9
ATOM      9  CA  GLU     4      -4.389   2.847   8.518  1.00  0.00     0.187 C 
BRANCH   9  10
ATOM     10  CB  GLU     4      -3.693   1.669   7.818  1.00  0.00     0.045 C 
BRANCH  10  11
ATOM     11  CG  GLU     4      -2.370   1.183   8.451  1.00  0.00     0.100 C 
BRANCH  11  12
ATOM     12  CD  GLU     4      -2.535   0.506   9.811  1.00  0.00     0.185 C 
ATOM     13  OE1 GLU     4      -1.511   0.409  10.536  1.00  0.00    -0.647 OA
ATOM     14  OE2 GLU     4      -3.484  -0.295   9.928  1.00  0.00    -0.647 OA
ENDBRANCH  11  12
ENDBRANCH  10  11
ENDBRANCH   9  10
BRANCH   9  15
ATOM     15  N   GLU     4      -5.848   2.697   8.355  1.00  0.00    -0.229 NA
ATOM     16  C   PRO     3      -6.637   1.757   8.861  1.00  0.00     0.272 C 
ATOM     17  O   PRO     3      -6.336   1.078   9.844  1.00  0.00    -0.269 OA
BRANCH  16  18
ATOM     18  CA  PRO     3      -8.118   1.883   8.499  1.00  0.00     0.165 C 
ATOM     19  N   PRO     3      -8.701   0.696   7.839  1.00  0.00    -0.312 N 
ATOM     20  CD  PRO     3     -10.067   0.451   8.367  1.00  0.00     0.105 C 
ATOM     21  C   ASP     2      -8.124   0.050   6.809  1.00  0.00     0.257 C 
ATOM     22  CG  PRO     3     -10.368   1.687   9.229  1.00  0.00     0.027 C 
ATOM     23  CB  PRO     3      -8.994   2.126   9.726  1.00  0.00     0.034 C 
ATOM     24  O   ASP     2      -7.160   0.555   6.214  1.00  0.00    -0.270 OA
BRANCH  21  25
ATOM     25  CA  ASP     2      -8.865  -1.129   6.139  1.00  0.00     0.195 C 
BRANCH  25  26
ATOM     26  CB  ASP     2     -10.379  -1.256   6.449  1.00  0.00     0.132 C 
BRANCH  26  27
ATOM     27  CG  ASP     2     -11.186  -1.390   5.144  1.00  0.00     0.188 C 
ATOM     28  OD2 ASP     2     -10.540  -1.184   4.085  1.00  0.00    -0.647 OA
ATOM     29  OD1 ASP     2     -12.410  -1.115   5.206  1.00  0.00    -0.647 OA
ENDBRANCH  26  27
ENDBRANCH  25  26
BRANCH  25  30
ATOM     30  N   ASP     2      -8.340  -2.434   6.578  1.00  0.00    -0.228 NA
ATOM     31  C   TYR     1      -8.131  -3.488   5.825  1.00  0.00     0.289 C 
ATOM     32  O   TYR     1      -8.197  -3.570   4.594  1.00  0.00    -0.268 OA
BRANCH  31  33
ATOM     33  CA  TYR     1      -7.791  -4.723   6.654  1.00  0.00     0.385 C 
ATOM     34  N   TYR     1      -8.664  -4.725   7.839  1.00  0.00     0.626 N 
BRANCH  33  35
ATOM     35  CB  TYR     1      -8.012  -5.944   5.764  1.00  0.00     0.075 C 
BRANCH  35  36
ATOM     36  CG  TYR     1      -7.603  -7.262   6.439  1.00  0.00    -0.019 A 
ATOM     37  CD2 TYR     1      -8.320  -8.431   6.236  1.00  0.00    -0.002 A 
ATOM     38  CE2 TYR     1      -7.853  -9.633   6.746  1.00  0.00     0.027 A 
ATOM     39  CZ  TYR     1      -6.661  -9.648   7.470  1.00  0.00     0.131 A 
ATOM     40  CE1 TYR     1      -5.972  -8.471   7.704  1.00  0.00     0.027 A 
ATOM     41  OH  TYR     1      -6.091 -10.820   7.814  1.00  0.00    -0.190 OA
ATOM     42  CD1 TYR     1      -6.439  -7.269   7.193  1.00  0.00    -0.002 A 
ENDBRANCH  35  36
ENDBRANCH  33  35
ENDBRANCH  31  33
ENDBRANCH  25  30
ENDBRANCH  21  25
ENDBRANCH  16  18
ENDBRANCH   9  15
ENDBRANCH   7   9
ENDBRANCH   5   6
BRANCH   5  43
ATOM     43  CB  TYR     5      -3.690   7.525   8.767  1.00  0.00     0.060 C 
BRANCH  43  44
ATOM     44  CG  TYR     5      -3.991   8.322   7.486  1.00  0.00    -0.020 A 
ATOM     45  CD2 TYR     5      -3.379   9.548   7.255  1.00  0.00    -0.002 A 
ATOM     46  CE2 TYR     5      -3.652  10.258   6.090  1.00  0.00     0.027 A 
ATOM     47  CZ  TYR     5      -4.537   9.743   5.156  1.00  0.00     0.131 A 
ATOM     48  CE1 TYR     5      -5.141   8.509   5.371  1.00  0.00     0.027 A 
ATOM     49  OH  TYR     5      -4.914  10.487   4.093  1.00  0.00    -0.190 OA
ATOM     50  CD1 TYR     5      -4.872   7.803   6.544  1.00  0.00    -0.002 A 
ENDBRANCH  43  44
ENDBRANCH   5  43
ENDBRANCH   3   5
ENDBRANCH   1   2
BRANCH   1  51
ATOM     51  CB  ARG     6       1.470   4.382  10.073  1.00  0.00     0.036 C 
BRANCH  51  52
ATOM     52  CG  ARG     6       0.491   3.215   9.921  1.00  0.00     0.029 C 
BRANCH  52  53
ATOM     53  CD  ARG     6       1.100   2.121   9.048  1.00  0.00     0.145 C 
BRANCH  53  54
ATOM     54  NE  ARG     6       2.043   1.295   9.819  1.00  0.00    -0.083 NA
ATOM     55  CZ  ARG     6       3.377   1.474   9.872  1.00  0.00     0.782 C 
ATOM     56  NH2 ARG     6       4.151   0.614  10.536  1.00  0.00     0.063 N 
ATOM     57  NH1 ARG     6       3.948   2.462   9.191  1.00  0.00     0.063 N 
ENDBRANCH  53  54
ENDBRANCH  52  53
ENDBRANCH  51  52
ENDBRANCH   1  51
BRANCH   1  58
ATOM     58  C   ARG     6       1.907   6.310   8.621  1.00  0.00     0.274 C 
ATOM     59  N   ASN     7       2.390   7.511   8.930  1.00  0.00    -0.228 NA
ATOM     60  O   ARG     6       2.205   5.665   7.616  1.00  0.00    -0.268 OA
BRANCH  59  61
ATOM     61  CA  ASN     7       3.439   8.193   8.144  1.00  0.00     0.196 C 
BRANCH  61  62
ATOM     62  C   ASN     7       4.816   7.530   8.341  1.00  0.00     0.275 C 
ATOM     63  N   PHE     8       5.316   7.526   9.586  1.00  0.00    -0.228 NA
ATOM     64  O   ASN     7       5.176   6.737   7.492  1.00  0.00    -0.268 OA
BRANCH  63  65
ATOM     65  CA  PHE     8       6.580   6.864   9.991  1.00  0.00     0.191 C 
BRANCH  65  66
ATOM     66  CB  PHE     8       6.615   5.466   9.358  1.00  0.00     0.060 C 
BRANCH  66  67
ATOM     67  CG  PHE     8       8.012   5.011   8.896  1.00  0.00    -0.020 A 
ATOM     68  CD1 PHE     8       8.408   5.217   7.582  1.00  0.00    -0.004 A 
ATOM     69  CE1 PHE     8       9.631   4.714   7.139  1.00  0.00    -0.000 A 
ATOM     70  CZ  PHE     8      10.450   4.024   8.017  1.00  0.00    -0.000 A 
ATOM     71  CE2 PHE     8      10.061   3.828   9.338  1.00  0.00    -0.000 A 
ATOM     72  CD2 PHE     8       8.838   4.331   9.782  1.00  0.00    -0.004 A 
ENDBRANCH  66  67
ENDBRANCH  65  66
BRANCH  65  73
ATOM     73  C   PHE     8       7.865   7.664   9.678  1.00  0.00     0.275 C 
ATOM     74  N   TRP     9       7.817   8.475   8.620  1.00  0.00    -0.228 NA
ATOM     75  O   PHE     8       8.937   7.377  10.216  1.00  0.00    -0.268 OA
BRANCH  74  76
ATOM     76  CA  TRP     9       8.932   9.391   8.278  1.00  0.00     0.191 C 
BRANCH  76  77
ATOM     77  CB  TRP     9       9.513   8.979   6.915  1.00  0.00     0.062 C 
BRANCH  77  78
ATOM     78  CG  TRP     9      10.990   9.341   6.756  1.00  0.00     0.001 A 
ATOM     79  CD1 TRP     9      11.486  10.243   5.916  1.00  0.00     0.095 A 
ATOM     80  NE1 TRP     9      12.802  10.095   5.824  1.00  0.00    -0.244 NA
ATOM     81  CE2 TRP     9      13.192   9.108   6.617  1.00  0.00     0.081 A 
ATOM     82  CD2 TRP     9      12.061   8.586   7.224  1.00  0.00     0.015 A 
ATOM     83  CZ2 TRP     9      14.427   8.495   6.826  1.00  0.00     0.019 A 
ATOM     84  CE3 TRP     9      12.141   7.455   8.022  1.00  0.00     0.001 A 
ATOM     85  CZ3 TRP     9      13.370   6.834   8.222  1.00  0.00     0.000 A 
ATOM     86  CH2 TRP     9      14.513   7.371   7.635  1.00  0.00     0.002 A 
ENDBRANCH  77  78
ENDBRANCH  76  77
BRANCH  76  87
ATOM     87  C   TRP     9       8.562  10.892   8.308  1.00  0.00     0.275 C 
ATOM     88  O   TRP     9       9.347  11.743   7.900  1.00  0.00    -0.268 OA
ATOM     89  N   GLY    10       7.324  11.184   8.703  1.00  0.00    -0.226 NA
BRANCH  89  90
ATOM     90  CA  GLY    10       6.765  12.563   8.759  1.00  0.00     0.218 C 
BRANCH  90  91
ATOM     91  C   GLY    10       6.311  13.170   7.422  1.00  0.00     0.277 C 
ATOM     92  N   CYS    11       6.145  14.492   7.430  1.00  0.00    -0.228 NA
ATOM     93  O   GLY    10       5.968  12.447   6.493  1.00  0.00    -0.268 OA
BRANCH  92  94
ATOM     94  CA  CYS    11       5.738  15.337   6.286  1.00  0.00     0.198 C 
BRANCH  94  95
ATOM     95  C   CYS    11       6.929  16.242   5.912  1.00  0.00     0.275 C 
ATOM     96  O   CYS    11       6.883  17.434   6.196  1.00  0.00    -0.268 OA
ATOM     97  N   GLY    12       7.847  15.701   5.125  1.00  0.00    -0.225 NA
BRANCH  97  98
ATOM     98  CA  GLY    12       9.037  16.431   4.662  1.00  0.00     0.226 C 
BRANCH  98  99
ATOM     99  C   GLY    12      10.287  15.624   5.085  1.00  0.00     0.211 C 
ATOM    100  O1  GLY    12      10.483  15.495   6.320  1.00  0.00    -0.646 OA
ATOM    101  O2  GLY    12      10.990  15.130   4.185  1.00  0.00    -0.646 OA
ENDBRANCH  98  99
ENDBRANCH  97  98
ENDBRANCH  94  95
BRANCH  94 102
ATOM    102  CB  CYS    11       4.616  16.285   6.704  1.00  0.00     0.103 C 
ATOM    103  SG  CYS    11       2.931  15.847   6.126  1.00  0.00    -0.080 SA
ENDBRANCH  94 102
ENDBRANCH  92  94
ENDBRANCH  90  91
ENDBRANCH  89  90
ENDBRANCH  76  87
ENDBRANCH  74  76
ENDBRANCH  65  73
ENDBRANCH  63  65
ENDBRANCH  61  62
BRANCH  61 104
ATOM    104  CB  ASN     7       3.502   9.689   8.479  1.00  0.00     0.126 C 
BRANCH 104 105
ATOM    105  CG  ASN     7       2.837  10.612   7.442  1.00  0.00     0.276 C 
ATOM    106  ND2 ASN     7       2.698  11.870   7.794  1.00  0.00    -0.107 N 
ATOM    107  OD1 ASN     7       2.302  10.236   6.406  1.00  0.00    -0.269 OA
ENDBRANCH 104 105
ENDBRANCH  61 104
ENDBRANCH  59  61
ENDBRANCH   1  58
TORSDOF 42
ENDMDL
MODEL 7
REMARK VINA RESULT:      -4.4      6.225     14.715
REMARK WARNING: 32 MAX_TORS EXCEEDED!!!
REMARK  42 active torsions:
REMARK  status: ('A' for Active; 'I' for Inactive)
REMARK    1  A    between atoms: CA_2  and  CB_3 
REMARK    2  A    between atoms: CA_2  and  C_11 
REMARK    3  A    between atoms: CB_3  and  CG_4 
REMARK       I    between atoms: C_11  and  N_13 
REMARK    4  A    between atoms: N_13  and  CA_14 
REMARK    5  A    between atoms: CA_14  and  CB_15 
REMARK    6  A    between atoms: CA_14  and  C_19 
REMARK    7  A    between atoms: CB_15  and  CG_16 
REMARK       I    between atoms: C_19  and  N_21 
REMARK    8  A    between atoms: CA_22  and  C_26 
REMARK       I    between atoms: C_26  and  N_28 
REMARK    9  A    between atoms: N_28  and  CA_29 
REMARK   10  A    between atoms: CA_29  and  C_35 
REMARK   11  A    between atoms: CA_29  and  CB_30 
REMARK   12  A    between atoms: CB_30  and  CG_31 
REMARK   13  A    between atoms: CG_31  and  CD_32 
REMARK       I    between atoms: C_35  and  N_37 
REMARK   14  A    between atoms: N_37  and  CA_38 
REMARK   15  A    between atoms: CA_38  and  CB_39 
REMARK   16  A    between atoms: CA_38  and  C_47 
REMARK   17  A    between atoms: CB_39  and  CG_40 
REMARK       I    between atoms: C_47  and  N_49 
REMARK   18  A    between atoms: N_49  and  CA_50 
REMARK   19  A    between atoms: CA_50  and  CB_51 
REMARK   20  A    between atoms: CA_50  and  C_58 
REMARK   21  A    between atoms: CB_51  and  CG_52 
REMARK   22  A    between atoms: CG_52  and  CD_53 
REMARK   23  A    between atoms: CD_53  and  NE_54 
REMARK       I    between atoms: C_58  and  N_60 
REMARK   24  A    between atoms: N_60  and  CA_61 
REMARK   25  A    between atoms: CA_61  and  C_66 
REMARK   26  A    between atoms: CA_61  and  CB_62 
REMARK   27  A    between atoms: CB_62  and  CG_63 
REMARK       I    between atoms: C_66  and  N_68 
REMARK   28  A    between atoms: N_68  and  CA_69 
REMARK   29  A    between atoms: CA_69  and  CB_70 
REMARK   30  A    between atoms: CA_69  and  C_77 
REMARK   31  A    between atoms: CB_70  and  CG_71 
REMARK       I    between atoms: C_77  and  N_79 
REMARK   32  A    between atoms: N_79  and  CA_80 
REMARK   33  A    between atoms: CA_80  and  CB_81 
REMARK   34  A    between atoms: CA_80  and  C_91 
REMARK   35  A    between atoms: CB_81  and  CG_82 
REMARK       I    between atoms: C_91  and  N_93 
REMARK   36  A    between atoms: N_93  and  CA_94 
REMARK   37  A    between atoms: CA_94  and  C_95 
REMARK       I    between atoms: C_95  and  N_97 
REMARK   38  A    between atoms: N_97  and  CA_98 
REMARK   39  A    between atoms: CA_98  and  C_101 
REMARK   40  A    between atoms: CA_98  and  CB_99 
REMARK       I    between atoms: C_101  and  N_103 
REMARK   41  A    between atoms: N_103  and  CA_104 
REMARK   42  A    between atoms: CA_104  and  C_105 
ROOT
ATOM      1  CA  ARG     6       0.065   7.109   8.036  1.00  0.00     0.186 C 
ENDROOT
BRANCH   1   2
ATOM      2  N   ARG     6      -0.817   8.241   7.669  1.00  0.00    -0.229 NA
ATOM      3  C   TYR     5      -1.324   9.082   8.580  1.00  0.00     0.275 C 
ATOM      4  O   TYR     5      -1.066   8.985   9.780  1.00  0.00    -0.268 OA
BRANCH   3   5
ATOM      5  CA  TYR     5      -2.164  10.259   8.057  1.00  0.00     0.191 C 
BRANCH   5   6
ATOM      6  N   TYR     5      -1.762  11.572   8.626  1.00  0.00    -0.228 NA
ATOM      7  C   GLU     4      -0.535  12.094   8.471  1.00  0.00     0.274 C 
ATOM      8  O   GLU     4       0.306  11.597   7.732  1.00  0.00    -0.268 OA
BRANCH   7   9
ATOM      9  CA  GLU     4      -0.336  13.527   9.006  1.00  0.00     0.187 C 
BRANCH   9  10
ATOM     10  CB  GLU     4      -1.697  14.138   9.377  1.00  0.00     0.045 C 
BRANCH  10  11
ATOM     11  CG  GLU     4      -2.228  15.244   8.438  1.00  0.00     0.100 C 
BRANCH  11  12
ATOM     12  CD  GLU     4      -3.750  15.269   8.293  1.00  0.00     0.185 C 
ATOM     13  OE1 GLU     4      -4.425  14.704   9.192  1.00  0.00    -0.647 OA
ATOM     14  OE2 GLU     4      -4.201  15.403   7.138  1.00  0.00    -0.647 OA
ENDBRANCH  11  12
ENDBRANCH  10  11
ENDBRANCH   9  10
BRANCH   9  15
ATOM     15  N   GLU     4       0.335  14.421   8.042  1.00  0.00    -0.229 NA
ATOM     16  C   PRO     3       1.504  15.037   8.172  1.00  0.00     0.272 C 
ATOM     17  O   PRO     3       2.380  14.667   8.956  1.00  0.00    -0.269 OA
BRANCH  16  18
ATOM     18  CA  PRO     3       1.921  15.903   6.982  1.00  0.00     0.165 C 
ATOM     19  N   PRO     3       2.279  17.297   7.323  1.00  0.00    -0.312 N 
ATOM     20  CD  PRO     3       3.462  17.717   6.530  1.00  0.00     0.105 C 
ATOM     21  C   ASP     2       1.535  18.091   8.114  1.00  0.00     0.257 C 
ATOM     22  CG  PRO     3       3.671  16.573   5.525  1.00  0.00     0.027 C 
ATOM     23  CB  PRO     3       3.145  15.344   6.261  1.00  0.00     0.034 C 
ATOM     24  O   ASP     2       0.384  17.757   8.433  1.00  0.00    -0.270 OA
BRANCH  21  25
ATOM     25  CA  ASP     2       1.961  19.561   8.333  1.00  0.00     0.195 C 
BRANCH  25  26
ATOM     26  CB  ASP     2       2.143  20.014   9.804  1.00  0.00     0.132 C 
BRANCH  26  27
ATOM     27  CG  ASP     2       3.477  20.766   9.974  1.00  0.00     0.188 C 
ATOM     28  OD2 ASP     2       3.398  22.020   9.948  1.00  0.00    -0.647 OA
ATOM     29  OD1 ASP     2       4.509  20.184   9.558  1.00  0.00    -0.647 OA
ENDBRANCH  26  27
ENDBRANCH  25  26
BRANCH  25  30
ATOM     30  N   ASP     2       0.953  20.510   7.830  1.00  0.00    -0.228 NA
ATOM     31  C   TYR     1       1.118  21.398   6.877  1.00  0.00     0.289 C 
ATOM     32  O   TYR     1       2.086  21.533   6.122  1.00  0.00    -0.268 OA
BRANCH  31  33
ATOM     33  CA  TYR     1      -0.068  22.352   6.774  1.00  0.00     0.385 C 
ATOM     34  N   TYR     1       0.062  23.098   5.511  1.00  0.00     0.626 N 
BRANCH  33  35
ATOM     35  CB  TYR     1      -1.338  21.506   6.825  1.00  0.00     0.075 C 
BRANCH  35  36
ATOM     36  CG  TYR     1      -2.426  22.110   7.726  1.00  0.00    -0.019 A 
ATOM     37  CD2 TYR     1      -3.713  22.326   7.258  1.00  0.00    -0.002 A 
ATOM     38  CE2 TYR     1      -4.710  22.744   8.127  1.00  0.00     0.027 A 
ATOM     39  CZ  TYR     1      -4.399  22.951   9.470  1.00  0.00     0.131 A 
ATOM     40  CE1 TYR     1      -3.103  22.774   9.921  1.00  0.00     0.027 A 
ATOM     41  OH  TYR     1      -5.380  23.174  10.367  1.00  0.00    -0.190 OA
ATOM     42  CD1 TYR     1      -2.107  22.355   9.053  1.00  0.00    -0.002 A 
ENDBRANCH  35  36
ENDBRANCH  33  35
ENDBRANCH  31  33
ENDBRANCH  25  30
ENDBRANCH  21  25
ENDBRANCH  16  18
ENDBRANCH   9  15
ENDBRANCH   7   9
ENDBRANCH   5   6
BRANCH   5  43
ATOM     43  CB  TYR     5      -2.131  10.317   6.521  1.00  0.00     0.060 C 
BRANCH  43  44
ATOM     44  CG  TYR     5      -3.498   9.991   5.896  1.00  0.00    -0.020 A 
ATOM     45  CD2 TYR     5      -4.664  10.112   6.642  1.00  0.00    -0.002 A 
ATOM     46  CE2 TYR     5      -5.896   9.822   6.065  1.00  0.00     0.027 A 
ATOM     47  CZ  TYR     5      -5.964   9.411   4.743  1.00  0.00     0.131 A 
ATOM     48  CE1 TYR     5      -4.804   9.305   3.984  1.00  0.00     0.027 A 
ATOM     49  OH  TYR     5      -7.137   8.995   4.218  1.00  0.00    -0.190 OA
ATOM     50  CD1 TYR     5      -3.568   9.588   4.567  1.00  0.00    -0.002 A 
ENDBRANCH  43  44
ENDBRANCH   5  43
ENDBRANCH   3   5
ENDBRANCH   1   2
BRANCH   1  51
ATOM     51  CB  ARG     6      -0.478   5.760   7.575  1.00  0.00     0.036 C 
BRANCH  51  52
ATOM     52  CG  ARG     6      -1.989   5.608   7.765  1.00  0.00     0.029 C 
BRANCH  52  53
ATOM     53  CD  ARG     6      -2.401   4.148   7.605  1.00  0.00     0.145 C 
BRANCH  53  54
ATOM     54  NE  ARG     6      -3.220   3.959   6.396  1.00  0.00    -0.083 NA
ATOM     55  CZ  ARG     6      -4.498   3.536   6.377  1.00  0.00     0.782 C 
ATOM     56  NH2 ARG     6      -5.123   3.318   5.218  1.00  0.00     0.063 N 
ATOM     57  NH1 ARG     6      -5.126   3.246   7.511  1.00  0.00     0.063 N 
ENDBRANCH  53  54
ENDBRANCH  52  53
ENDBRANCH  51  52
ENDBRANCH   1  51
BRANCH   1  58
ATOM     58  C   ARG     6       1.472   7.243   7.439  1.00  0.00     0.274 C 
ATOM     59  N   ASN     7       2.311   8.025   8.111  1.00  0.00    -0.228 NA
ATOM     60  O   ARG     6       1.743   6.642   6.399  1.00  0.00    -0.268 OA
BRANCH  59  61
ATOM     61  CA  ASN     7       3.733   8.198   7.746  1.00  0.00     0.196 C 
BRANCH  61  62
ATOM     62  C   ASN     7       4.622   7.124   8.403  1.00  0.00     0.275 C 
ATOM     63  N   PHE     8       5.877   7.012   7.944  1.00  0.00    -0.228 NA
ATOM     64  O   ASN     7       4.292   6.731   9.505  1.00  0.00    -0.268 OA
BRANCH  63  65
ATOM     65  CA  PHE     8       6.906   6.101   8.504  1.00  0.00     0.191 C 
BRANCH  65  66
ATOM     66  CB  PHE     8       6.929   4.823   7.654  1.00  0.00     0.060 C 
BRANCH  66  67
ATOM     67  CG  PHE     8       7.858   3.718   8.192  1.00  0.00    -0.020 A 
ATOM     68  CD1 PHE     8       8.881   3.225   7.394  1.00  0.00    -0.004 A 
ATOM     69  CE1 PHE     8       9.657   2.156   7.842  1.00  0.00    -0.000 A 
ATOM     70  CZ  PHE     8       9.410   1.601   9.088  1.00  0.00    -0.000 A 
ATOM     71  CE2 PHE     8       8.393   2.102   9.894  1.00  0.00    -0.000 A 
ATOM     72  CD2 PHE     8       7.618   3.172   9.446  1.00  0.00    -0.004 A 
ENDBRANCH  66  67
ENDBRANCH  65  66
BRANCH  65  73
ATOM     73  C   PHE     8       8.316   6.717   8.646  1.00  0.00     0.275 C 
ATOM     74  N   TRP     9       8.869   7.196   7.530  1.00  0.00    -0.228 NA
ATOM     75  O   PHE     8       8.983   6.545   9.669  1.00  0.00    -0.268 OA
BRANCH  74  76
ATOM     76  CA  TRP     9      10.162   7.924   7.542  1.00  0.00     0.191 C 
BRANCH  76  77
ATOM     77  CB  TRP     9      11.163   7.172   6.649  1.00  0.00     0.062 C 
BRANCH  77  78
ATOM     78  CG  TRP     9      12.198   6.376   7.442  1.00  0.00     0.001 A 
ATOM     79  CD1 TRP     9      12.055   5.130   7.882  1.00  0.00     0.095 A 
ATOM     80  NE1 TRP     9      13.002   4.856   8.771  1.00  0.00    -0.244 NA
ATOM     81  CE2 TRP     9      13.793   5.909   8.913  1.00  0.00     0.081 A 
ATOM     82  CD2 TRP     9      13.306   6.913   8.090  1.00  0.00     0.015 A 
ATOM     83  CZ2 TRP     9      14.863   6.181   9.765  1.00  0.00     0.019 A 
ATOM     84  CE3 TRP     9      13.861   8.184   8.115  1.00  0.00     0.001 A 
ATOM     85  CZ3 TRP     9      14.919   8.460   8.974  1.00  0.00     0.000 A 
ATOM     86  CH2 TRP     9      15.429   7.447   9.784  1.00  0.00     0.002 A 
ENDBRANCH  77  78
ENDBRANCH  76  77
BRANCH  76  87
ATOM     87  C   TRP     9      10.062   9.416   7.155  1.00  0.00     0.275 C 
ATOM     88  O   TRP     9      10.928   9.948   6.466  1.00  0.00    -0.268 OA
ATOM     89  N   GLY    10       8.947  10.046   7.523  1.00  0.00    -0.226 NA
BRANCH  89  90
ATOM     90  CA  GLY    10       8.644  11.469   7.207  1.00  0.00     0.218 C 
BRANCH  90  91
ATOM     91  C   GLY    10       8.398  12.397   8.408  1.00  0.00     0.277 C 
ATOM     92  N   CYS    11       9.185  13.471   8.460  1.00  0.00    -0.228 NA
ATOM     93  O   GLY    10       7.653  12.054   9.318  1.00  0.00    -0.268 OA
BRANCH  92  94
ATOM     94  CA  CYS    11       9.153  14.538   9.485  1.00  0.00     0.198 C 
BRANCH  94  95
ATOM     95  C   CYS    11       8.020  15.517   9.121  1.00  0.00     0.275 C 
ATOM     96  O   CYS    11       7.112  15.703   9.924  1.00  0.00    -0.268 OA
ATOM     97  N   GLY    12       8.002  15.947   7.868  1.00  0.00    -0.225 NA
BRANCH  97  98
ATOM     98  CA  GLY    12       6.981  16.872   7.351  1.00  0.00     0.226 C 
BRANCH  98  99
ATOM     99  C   GLY    12       7.488  17.441   6.006  1.00  0.00     0.211 C 
ATOM    100  O1  GLY    12       6.840  18.402   5.520  1.00  0.00    -0.646 OA
ATOM    101  O2  GLY    12       8.516  16.939   5.515  1.00  0.00    -0.646 OA
ENDBRANCH  98  99
ENDBRANCH  97  98
ENDBRANCH  94  95
BRANCH  94 102
ATOM    102  CB  CYS    11      10.440  15.358   9.429  1.00  0.00     0.103 C 
ATOM    103  SG  CYS    11      11.629  14.908   8.108  1.00  0.00    -0.080 SA
ENDBRANCH  94 102
ENDBRANCH  92  94
ENDBRANCH  90  91
ENDBRANCH  89  90
ENDBRANCH  76  87
ENDBRANCH  74  76
ENDBRANCH  65  73
ENDBRANCH  63  65
ENDBRANCH  61  62
BRANCH  61 104
ATOM    104  CB  ASN     7       4.230   9.607   8.096  1.00  0.00     0.126 C 
BRANCH 104 105
ATOM    105  CG  ASN     7       3.903  10.687   7.049  1.00  0.00     0.276 C 
ATOM    106  ND2 ASN     7       4.140  11.928   7.408  1.00  0.00    -0.107 N 
ATOM    107  OD1 ASN     7       3.309  10.490   5.997  1.00  0.00    -0.269 OA
ENDBRANCH 104 105
ENDBRANCH  61 104
ENDBRANCH  59  61
ENDBRANCH   1  58
TORSDOF 42
ENDMDL
MODEL 8
REMARK VINA RESULT:      -4.3      7.061     14.872
REMARK WARNING: 32 MAX_TORS EXCEEDED!!!
REMARK  42 active torsions:
REMARK  status: ('A' for Active; 'I' for Inactive)
REMARK    1  A    between atoms: CA_2  and  CB_3 
REMARK    2  A    between atoms: CA_2  and  C_11 
REMARK    3  A    between atoms: CB_3  and  CG_4 
REMARK       I    between atoms: C_11  and  N_13 
REMARK    4  A    between atoms: N_13  and  CA_14 
REMARK    5  A    between atoms: CA_14  and  CB_15 
REMARK    6  A    between atoms: CA_14  and  C_19 
REMARK    7  A    between atoms: CB_15  and  CG_16 
REMARK       I    between atoms: C_19  and  N_21 
REMARK    8  A    between atoms: CA_22  and  C_26 
REMARK       I    between atoms: C_26  and  N_28 
REMARK    9  A    between atoms: N_28  and  CA_29 
REMARK   10  A    between atoms: CA_29  and  C_35 
REMARK   11  A    between atoms: CA_29  and  CB_30 
REMARK   12  A    between atoms: CB_30  and  CG_31 
REMARK   13  A    between atoms: CG_31  and  CD_32 
REMARK       I    between atoms: C_35  and  N_37 
REMARK   14  A    between atoms: N_37  and  CA_38 
REMARK   15  A    between atoms: CA_38  and  CB_39 
REMARK   16  A    between atoms: CA_38  and  C_47 
REMARK   17  A    between atoms: CB_39  and  CG_40 
REMARK       I    between atoms: C_47  and  N_49 
REMARK   18  A    between atoms: N_49  and  CA_50 
REMARK   19  A    between atoms: CA_50  and  CB_51 
REMARK   20  A    between atoms: CA_50  and  C_58 
REMARK   21  A    between atoms: CB_51  and  CG_52 
REMARK   22  A    between atoms: CG_52  and  CD_53 
REMARK   23  A    between atoms: CD_53  and  NE_54 
REMARK       I    between atoms: C_58  and  N_60 
REMARK   24  A    between atoms: N_60  and  CA_61 
REMARK   25  A    between atoms: CA_61  and  C_66 
REMARK   26  A    between atoms: CA_61  and  CB_62 
REMARK   27  A    between atoms: CB_62  and  CG_63 
REMARK       I    between atoms: C_66  and  N_68 
REMARK   28  A    between atoms: N_68  and  CA_69 
REMARK   29  A    between atoms: CA_69  and  CB_70 
REMARK   30  A    between atoms: CA_69  and  C_77 
REMARK   31  A    between atoms: CB_70  and  CG_71 
REMARK       I    between atoms: C_77  and  N_79 
REMARK   32  A    between atoms: N_79  and  CA_80 
REMARK   33  A    between atoms: CA_80  and  CB_81 
REMARK   34  A    between atoms: CA_80  and  C_91 
REMARK   35  A    between atoms: CB_81  and  CG_82 
REMARK       I    between atoms: C_91  and  N_93 
REMARK   36  A    between atoms: N_93  and  CA_94 
REMARK   37  A    between atoms: CA_94  and  C_95 
REMARK       I    between atoms: C_95  and  N_97 
REMARK   38  A    between atoms: N_97  and  CA_98 
REMARK   39  A    between atoms: CA_98  and  C_101 
REMARK   40  A    between atoms: CA_98  and  CB_99 
REMARK       I    between atoms: C_101  and  N_103 
REMARK   41  A    between atoms: N_103  and  CA_104 
REMARK   42  A    between atoms: CA_104  and  C_105 
ROOT
ATOM      1  CA  ARG     6       1.193   7.636   8.257  1.00  0.00     0.186 C 
ENDROOT
BRANCH   1   2
ATOM      2  N   ARG     6       0.129   8.597   7.884  1.00  0.00    -0.229 NA
ATOM      3  C   TYR     5      -0.511   9.347   8.790  1.00  0.00     0.275 C 
ATOM      4  O   TYR     5      -0.237   9.307   9.990  1.00  0.00    -0.268 OA
BRANCH   3   5
ATOM      5  CA  TYR     5      -1.541  10.358   8.261  1.00  0.00     0.191 C 
BRANCH   5   6
ATOM      6  N   TYR     5      -1.314  11.745   8.746  1.00  0.00    -0.228 NA
ATOM      7  C   GLU     4      -0.222  12.461   8.434  1.00  0.00     0.274 C 
ATOM      8  O   GLU     4       0.604  12.083   7.613  1.00  0.00    -0.268 OA
BRANCH   7   9
ATOM      9  CA  GLU     4      -0.218  13.929   8.907  1.00  0.00     0.187 C 
BRANCH   9  10
ATOM     10  CB  GLU     4      -1.656  14.470   8.942  1.00  0.00     0.045 C 
BRANCH  10  11
ATOM     11  CG  GLU     4      -1.859  15.907   8.412  1.00  0.00     0.100 C 
BRANCH  11  12
ATOM     12  CD  GLU     4      -3.042  16.064   7.458  1.00  0.00     0.185 C 
ATOM     13  OE1 GLU     4      -3.421  17.236   7.195  1.00  0.00    -0.647 OA
ATOM     14  OE2 GLU     4      -3.830  15.101   7.378  1.00  0.00    -0.647 OA
ENDBRANCH  11  12
ENDBRANCH  10  11
ENDBRANCH   9  10
BRANCH   9  15
ATOM     15  N   GLU     4       0.598  14.814   8.052  1.00  0.00    -0.229 NA
ATOM     16  C   PRO     3       1.900  15.060   8.134  1.00  0.00     0.272 C 
ATOM     17  O   PRO     3       2.696  14.308   8.697  1.00  0.00    -0.269 OA
BRANCH  16  18
ATOM     18  CA  PRO     3       2.446  16.036   7.090  1.00  0.00     0.165 C 
ATOM     19  N   PRO     3       3.813  16.533   7.358  1.00  0.00    -0.312 N 
ATOM     20  CD  PRO     3       4.581  16.591   6.088  1.00  0.00     0.105 C 
ATOM     21  C   ASP     2       4.221  17.002   8.551  1.00  0.00     0.257 C 
ATOM     22  CG  PRO     3       3.535  16.310   4.999  1.00  0.00     0.027 C 
ATOM     23  CB  PRO     3       2.515  15.415   5.697  1.00  0.00     0.034 C 
ATOM     24  O   ASP     2       3.395  17.243   9.445  1.00  0.00    -0.270 OA
BRANCH  21  25
ATOM     25  CA  ASP     2       5.649  17.576   8.694  1.00  0.00     0.195 C 
BRANCH  25  26
ATOM     26  CB  ASP     2       6.115  17.913  10.134  1.00  0.00     0.132 C 
BRANCH  26  27
ATOM     27  CG  ASP     2       7.454  17.217  10.442  1.00  0.00     0.188 C 
ATOM     28  OD2 ASP     2       8.454  17.976  10.519  1.00  0.00    -0.647 OA
ATOM     29  OD1 ASP     2       7.582  16.035  10.037  1.00  0.00    -0.647 OA
ENDBRANCH  26  27
ENDBRANCH  25  26
BRANCH  25  30
ATOM     30  N   ASP     2       5.798  18.868   8.002  1.00  0.00    -0.228 NA
ATOM     31  C   TYR     1       5.162  19.983   8.275  1.00  0.00     0.289 C 
ATOM     32  O   TYR     1       4.421  20.221   9.234  1.00  0.00    -0.268 OA
BRANCH  31  33
ATOM     33  CA  TYR     1       5.407  21.054   7.216  1.00  0.00     0.385 C 
ATOM     34  N   TYR     1       6.787  21.541   7.379  1.00  0.00     0.626 N 
BRANCH  33  35
ATOM     35  CB  TYR     1       5.172  20.409   5.853  1.00  0.00     0.075 C 
BRANCH  35  36
ATOM     36  CG  TYR     1       3.783  20.718   5.273  1.00  0.00    -0.019 A 
ATOM     37  CD2 TYR     1       3.152  19.843   4.403  1.00  0.00    -0.002 A 
ATOM     38  CE2 TYR     1       1.845  20.079   4.002  1.00  0.00     0.027 A 
ATOM     39  CZ  TYR     1       1.181  21.208   4.480  1.00  0.00     0.131 A 
ATOM     40  CE1 TYR     1       1.830  22.098   5.315  1.00  0.00     0.027 A 
ATOM     41  OH  TYR     1      -0.140  21.361   4.258  1.00  0.00    -0.190 OA
ATOM     42  CD1 TYR     1       3.137  21.862   5.716  1.00  0.00    -0.002 A 
ENDBRANCH  35  36
ENDBRANCH  33  35
ENDBRANCH  31  33
ENDBRANCH  25  30
ENDBRANCH  21  25
ENDBRANCH  16  18
ENDBRANCH   9  15
ENDBRANCH   7   9
ENDBRANCH   5   6
BRANCH   5  43
ATOM     43  CB  TYR     5      -1.591  10.338   6.724  1.00  0.00     0.060 C 
BRANCH  43  44
ATOM     44  CG  TYR     5      -3.022  10.159   6.189  1.00  0.00    -0.020 A 
ATOM     45  CD2 TYR     5      -4.118  10.477   6.981  1.00  0.00    -0.002 A 
ATOM     46  CE2 TYR     5      -5.409  10.318   6.486  1.00  0.00     0.027 A 
ATOM     47  CZ  TYR     5      -5.604   9.841   5.199  1.00  0.00     0.131 A 
ATOM     48  CE1 TYR     5      -4.512   9.538   4.393  1.00  0.00     0.027 A 
ATOM     49  OH  TYR     5      -6.848   9.553   4.761  1.00  0.00    -0.190 OA
ATOM     50  CD1 TYR     5      -3.219   9.689   4.895  1.00  0.00    -0.002 A 
ENDBRANCH  43  44
ENDBRANCH   5  43
ENDBRANCH   3   5
ENDBRANCH   1   2
BRANCH   1  51
ATOM     51  CB  ARG     6       0.993   6.258   7.633  1.00  0.00     0.036 C 
BRANCH  51  52
ATOM     52  CG  ARG     6       0.564   5.185   8.636  1.00  0.00     0.029 C 
BRANCH  52  53
ATOM     53  CD  ARG     6      -0.892   5.392   9.045  1.00  0.00     0.145 C 
BRANCH  53  54
ATOM     54  NE  ARG     6      -1.806   4.758   8.080  1.00  0.00    -0.083 NA
ATOM     55  CZ  ARG     6      -2.697   5.406   7.306  1.00  0.00     0.782 C 
ATOM     56  NH2 ARG     6      -3.537   4.725   6.525  1.00  0.00     0.063 N 
ATOM     57  NH1 ARG     6      -2.809   6.728   7.375  1.00  0.00     0.063 N 
ENDBRANCH  53  54
ENDBRANCH  52  53
ENDBRANCH  51  52
ENDBRANCH   1  51
BRANCH   1  58
ATOM     58  C   ARG     6       2.589   8.111   7.834  1.00  0.00     0.274 C 
ATOM     59  N   ASN     7       3.309   8.703   8.783  1.00  0.00    -0.228 NA
ATOM     60  O   ARG     6       2.959   7.931   6.673  1.00  0.00    -0.268 OA
BRANCH  59  61
ATOM     61  CA  ASN     7       4.708   9.138   8.592  1.00  0.00     0.196 C 
BRANCH  61  62
ATOM     62  C   ASN     7       5.685   7.948   8.657  1.00  0.00     0.275 C 
ATOM     63  N   PHE     8       6.897   8.127   8.111  1.00  0.00    -0.228 NA
ATOM     64  O   ASN     7       5.469   7.099   9.500  1.00  0.00    -0.268 OA
BRANCH  63  65
ATOM     65  CA  PHE     8       8.000   7.136   8.150  1.00  0.00     0.191 C 
BRANCH  65  66
ATOM     66  CB  PHE     8       7.812   6.162   6.978  1.00  0.00     0.060 C 
BRANCH  66  67
ATOM     67  CG  PHE     8       8.425   4.767   7.205  1.00  0.00    -0.020 A 
ATOM     68  CD1 PHE     8       9.623   4.430   6.591  1.00  0.00    -0.004 A 
ATOM     69  CE1 PHE     8      10.125   3.134   6.714  1.00  0.00    -0.000 A 
ATOM     70  CZ  PHE     8       9.432   2.196   7.462  1.00  0.00    -0.000 A 
ATOM     71  CE2 PHE     8       8.238   2.536   8.089  1.00  0.00    -0.000 A 
ATOM     72  CD2 PHE     8       7.736   3.832   7.966  1.00  0.00    -0.004 A 
ENDBRANCH  66  67
ENDBRANCH  65  66
BRANCH  65  73
ATOM     73  C   PHE     8       9.422   7.741   8.166  1.00  0.00     0.275 C 
ATOM     74  N   TRP     9       9.941   8.069   6.982  1.00  0.00    -0.228 NA
ATOM     75  O   PHE     8      10.123   7.684   9.180  1.00  0.00    -0.268 OA
BRANCH  74  76
ATOM     76  CA  TRP     9      11.243   8.771   6.861  1.00  0.00     0.191 C 
BRANCH  76  77
ATOM     77  CB  TRP     9      12.293   7.780   6.332  1.00  0.00     0.062 C 
BRANCH  77  78
ATOM     78  CG  TRP     9      13.101   7.110   7.443  1.00  0.00     0.001 A 
ATOM     79  CD1 TRP     9      12.817   5.947   8.022  1.00  0.00     0.095 A 
ATOM     80  NE1 TRP     9      13.539   5.809   9.127  1.00  0.00    -0.244 NA
ATOM     81  CE2 TRP     9      14.320   6.867   9.281  1.00  0.00     0.081 A 
ATOM     82  CD2 TRP     9      14.063   7.734   8.231  1.00  0.00     0.015 A 
ATOM     83  CZ2 TRP     9      15.191   7.261  10.297  1.00  0.00     0.019 A 
ATOM     84  CE3 TRP     9      14.648   8.991   8.187  1.00  0.00     0.001 A 
ATOM     85  CZ3 TRP     9      15.506   9.391   9.206  1.00  0.00     0.000 A 
ATOM     86  CH2 TRP     9      15.788   8.512  10.250  1.00  0.00     0.002 A 
ENDBRANCH  77  78
ENDBRANCH  76  77
BRANCH  76  87
ATOM     87  C   TRP     9      11.199  10.061   6.011  1.00  0.00     0.275 C 
ATOM     88  O   TRP     9      10.166  10.717   5.914  1.00  0.00    -0.268 OA
ATOM     89  N   GLY    10      12.357  10.460   5.487  1.00  0.00    -0.226 NA
BRANCH  89  90
ATOM     90  CA  GLY    10      12.528  11.697   4.677  1.00  0.00     0.218 C 
BRANCH  90  91
ATOM     91  C   GLY    10      12.737  13.003   5.461  1.00  0.00     0.277 C 
ATOM     92  N   CYS    11      11.633  13.719   5.666  1.00  0.00    -0.228 NA
ATOM     93  O   GLY    10      13.867  13.408   5.708  1.00  0.00    -0.268 OA
BRANCH  92  94
ATOM     94  CA  CYS    11      11.536  14.998   6.405  1.00  0.00     0.198 C 
BRANCH  94  95
ATOM     95  C   CYS    11      10.658  14.766   7.651  1.00  0.00     0.275 C 
ATOM     96  O   CYS    11      10.300  15.731   8.316  1.00  0.00    -0.268 OA
ATOM     97  N   GLY    12      10.513  13.506   8.033  1.00  0.00    -0.225 NA
BRANCH  97  98
ATOM     98  CA  GLY    12       9.722  13.111   9.209  1.00  0.00     0.226 C 
BRANCH  98  99
ATOM     99  C   GLY    12       9.775  11.570   9.325  1.00  0.00     0.211 C 
ATOM    100  O1  GLY    12       8.699  10.952   9.122  1.00  0.00    -0.646 OA
ATOM    101  O2  GLY    12      10.875  11.044   9.573  1.00  0.00    -0.646 OA
ENDBRANCH  98  99
ENDBRANCH  97  98
ENDBRANCH  94  95
BRANCH  94 102
ATOM    102  CB  CYS    11      10.793  16.036   5.566  1.00  0.00     0.103 C 
ATOM    103  SG  CYS    11       9.832  15.387   4.145  1.00  0.00    -0.080 SA
ENDBRANCH  94 102
ENDBRANCH  92  94
ENDBRANCH  90  91
ENDBRANCH  89  90
ENDBRANCH  76  87
ENDBRANCH  74  76
ENDBRANCH  65  73
ENDBRANCH  63  65
ENDBRANCH  61  62
BRANCH  61 104
ATOM    104  CB  ASN     7       5.098  10.220   9.607  1.00  0.00     0.126 C 
BRANCH 104 105
ATOM    105  CG  ASN     7       5.307  11.623   9.008  1.00  0.00     0.276 C 
ATOM    106  ND2 ASN     7       5.341  11.692   7.697  1.00  0.00    -0.107 N 
ATOM    107  OD1 ASN     7       5.593  12.626   9.650  1.00  0.00    -0.269 OA
ENDBRANCH 104 105
ENDBRANCH  61 104
ENDBRANCH  59  61
ENDBRANCH   1  58
TORSDOF 42
ENDMDL
MODEL 9
REMARK VINA RESULT:      -4.2      7.051     15.058
REMARK WARNING: 32 MAX_TORS EXCEEDED!!!
REMARK  42 active torsions:
REMARK  status: ('A' for Active; 'I' for Inactive)
REMARK    1  A    between atoms: CA_2  and  CB_3 
REMARK    2  A    between atoms: CA_2  and  C_11 
REMARK    3  A    between atoms: CB_3  and  CG_4 
REMARK       I    between atoms: C_11  and  N_13 
REMARK    4  A    between atoms: N_13  and  CA_14 
REMARK    5  A    between atoms: CA_14  and  CB_15 
REMARK    6  A    between atoms: CA_14  and  C_19 
REMARK    7  A    between atoms: CB_15  and  CG_16 
REMARK       I    between atoms: C_19  and  N_21 
REMARK    8  A    between atoms: CA_22  and  C_26 
REMARK       I    between atoms: C_26  and  N_28 
REMARK    9  A    between atoms: N_28  and  CA_29 
REMARK   10  A    between atoms: CA_29  and  C_35 
REMARK   11  A    between atoms: CA_29  and  CB_30 
REMARK   12  A    between atoms: CB_30  and  CG_31 
REMARK   13  A    between atoms: CG_31  and  CD_32 
REMARK       I    between atoms: C_35  and  N_37 
REMARK   14  A    between atoms: N_37  and  CA_38 
REMARK   15  A    between atoms: CA_38  and  CB_39 
REMARK   16  A    between atoms: CA_38  and  C_47 
REMARK   17  A    between atoms: CB_39  and  CG_40 
REMARK       I    between atoms: C_47  and  N_49 
REMARK   18  A    between atoms: N_49  and  CA_50 
REMARK   19  A    between atoms: CA_50  and  CB_51 
REMARK   20  A    between atoms: CA_50  and  C_58 
REMARK   21  A    between atoms: CB_51  and  CG_52 
REMARK   22  A    between atoms: CG_52  and  CD_53 
REMARK   23  A    between atoms: CD_53  and  NE_54 
REMARK       I    between atoms: C_58  and  N_60 
REMARK   24  A    between atoms: N_60  and  CA_61 
REMARK   25  A    between atoms: CA_61  and  C_66 
REMARK   26  A    between atoms: CA_61  and  CB_62 
REMARK   27  A    between atoms: CB_62  and  CG_63 
REMARK       I    between atoms: C_66  and  N_68 
REMARK   28  A    between atoms: N_68  and  CA_69 
REMARK   29  A    between atoms: CA_69  and  CB_70 
REMARK   30  A    between atoms: CA_69  and  C_77 
REMARK   31  A    between atoms: CB_70  and  CG_71 
REMARK       I    between atoms: C_77  and  N_79 
REMARK   32  A    between atoms: N_79  and  CA_80 
REMARK   33  A    between atoms: CA_80  and  CB_81 
REMARK   34  A    between atoms: CA_80  and  C_91 
REMARK   35  A    between atoms: CB_81  and  CG_82 
REMARK       I    between atoms: C_91  and  N_93 
REMARK   36  A    between atoms: N_93  and  CA_94 
REMARK   37  A    between atoms: CA_94  and  C_95 
REMARK       I    between atoms: C_95  and  N_97 
REMARK   38  A    between atoms: N_97  and  CA_98 
REMARK   39  A    between atoms: CA_98  and  C_101 
REMARK   40  A    between atoms: CA_98  and  CB_99 
REMARK       I    between atoms: C_101  and  N_103 
REMARK   41  A    between atoms: N_103  and  CA_104 
REMARK   42  A    between atoms: CA_104  and  C_105 
ROOT
ATOM      1  CA  ARG     6       1.128   7.607   8.263  1.00  0.00     0.186 C 
ENDROOT
BRANCH   1   2
ATOM      2  N   ARG     6       0.055   8.560   7.895  1.00  0.00    -0.229 NA
ATOM      3  C   TYR     5      -0.593   9.298   8.806  1.00  0.00     0.275 C 
ATOM      4  O   TYR     5      -0.320   9.253  10.006  1.00  0.00    -0.268 OA
BRANCH   3   5
ATOM      5  CA  TYR     5      -1.633  10.302   8.282  1.00  0.00     0.191 C 
BRANCH   5   6
ATOM      6  N   TYR     5      -1.399  11.694   8.748  1.00  0.00    -0.228 NA
ATOM      7  C   GLU     4      -0.313  12.408   8.412  1.00  0.00     0.274 C 
ATOM      8  O   GLU     4       0.501  12.021   7.583  1.00  0.00    -0.268 OA
BRANCH   7   9
ATOM      9  CA  GLU     4      -0.303  13.881   8.869  1.00  0.00     0.187 C 
BRANCH   9  10
ATOM     10  CB  GLU     4      -1.743  14.414   8.942  1.00  0.00     0.045 C 
BRANCH  10  11
ATOM     11  CG  GLU     4      -1.970  15.844   8.404  1.00  0.00     0.100 C 
BRANCH  11  12
ATOM     12  CD  GLU     4      -3.193  15.989   7.499  1.00  0.00     0.185 C 
ATOM     13  OE1 GLU     4      -3.572  17.156   7.221  1.00  0.00    -0.647 OA
ATOM     14  OE2 GLU     4      -3.994  15.032   7.481  1.00  0.00    -0.647 OA
ENDBRANCH  11  12
ENDBRANCH  10  11
ENDBRANCH   9  10
BRANCH   9  15
ATOM     15  N   GLU     4       0.481  14.761   7.980  1.00  0.00    -0.229 NA
ATOM     16  C   PRO     3       1.776  15.047   8.043  1.00  0.00     0.272 C 
ATOM     17  O   PRO     3       2.598  14.336   8.624  1.00  0.00    -0.269 OA
BRANCH  16  18
ATOM     18  CA  PRO     3       2.287  16.004   6.965  1.00  0.00     0.165 C 
ATOM     19  N   PRO     3       3.659  16.509   7.182  1.00  0.00    -0.312 N 
ATOM     20  CD  PRO     3       4.388  16.546   5.888  1.00  0.00     0.105 C 
ATOM     21  C   ASP     2       4.102  17.003   8.352  1.00  0.00     0.257 C 
ATOM     22  CG  PRO     3       3.310  16.241   4.836  1.00  0.00     0.027 C 
ATOM     23  CB  PRO     3       2.314  15.357   5.582  1.00  0.00     0.034 C 
ATOM     24  O   ASP     2       3.304  17.258   9.267  1.00  0.00    -0.270 OA
BRANCH  21  25
ATOM     25  CA  ASP     2       5.532  17.583   8.441  1.00  0.00     0.195 C 
BRANCH  25  26
ATOM     26  CB  ASP     2       5.978  18.108   9.830  1.00  0.00     0.132 C 
BRANCH  26  27
ATOM     27  CG  ASP     2       7.274  17.408  10.278  1.00  0.00     0.188 C 
ATOM     28  OD2 ASP     2       8.305  18.128  10.282  1.00  0.00    -0.647 OA
ATOM     29  OD1 ASP     2       7.359  16.176  10.047  1.00  0.00    -0.647 OA
ENDBRANCH  26  27
ENDBRANCH  25  26
BRANCH  25  30
ATOM     30  N   ASP     2       5.702  18.768   7.583  1.00  0.00    -0.228 NA
ATOM     31  C   TYR     1       5.183  19.958   7.776  1.00  0.00     0.289 C 
ATOM     32  O   TYR     1       4.568  20.368   8.766  1.00  0.00    -0.268 OA
BRANCH  31  33
ATOM     33  CA  TYR     1       5.393  20.875   6.575  1.00  0.00     0.385 C 
ATOM     34  N   TYR     1       4.295  21.856   6.560  1.00  0.00     0.626 N 
BRANCH  33  35
ATOM     35  CB  TYR     1       6.761  21.532   6.738  1.00  0.00     0.075 C 
BRANCH  35  36
ATOM     36  CG  TYR     1       7.818  20.964   5.778  1.00  0.00    -0.019 A 
ATOM     37  CD2 TYR     1       9.164  20.956   6.110  1.00  0.00    -0.002 A 
ATOM     38  CE2 TYR     1      10.081  20.316   5.289  1.00  0.00     0.027 A 
ATOM     39  CZ  TYR     1       9.632  19.690   4.126  1.00  0.00     0.131 A 
ATOM     40  CE1 TYR     1       8.293  19.738   3.781  1.00  0.00     0.027 A 
ATOM     41  OH  TYR     1      10.465  18.907   3.413  1.00  0.00    -0.190 OA
ATOM     42  CD1 TYR     1       7.377  20.377   4.602  1.00  0.00    -0.002 A 
ENDBRANCH  35  36
ENDBRANCH  33  35
ENDBRANCH  31  33
ENDBRANCH  25  30
ENDBRANCH  21  25
ENDBRANCH  16  18
ENDBRANCH   9  15
ENDBRANCH   7   9
ENDBRANCH   5   6
BRANCH   5  43
ATOM     43  CB  TYR     5      -1.707  10.266   6.746  1.00  0.00     0.060 C 
BRANCH  43  44
ATOM     44  CG  TYR     5      -3.153  10.156   6.235  1.00  0.00    -0.020 A 
ATOM     45  CD2 TYR     5      -4.220  10.519   7.047  1.00  0.00    -0.002 A 
ATOM     46  CE2 TYR     5      -5.524  10.423   6.572  1.00  0.00     0.027 A 
ATOM     47  CZ  TYR     5      -5.762   9.965   5.285  1.00  0.00     0.131 A 
ATOM     48  CE1 TYR     5      -4.699   9.617   4.460  1.00  0.00     0.027 A 
ATOM     49  OH  TYR     5      -7.026   9.738   4.867  1.00  0.00    -0.190 OA
ATOM     50  CD1 TYR     5      -3.392   9.706   4.941  1.00  0.00    -0.002 A 
ENDBRANCH  43  44
ENDBRANCH   5  43
ENDBRANCH   3   5
ENDBRANCH   1   2
BRANCH   1  51
ATOM     51  CB  ARG     6       0.958   6.240   7.608  1.00  0.00     0.036 C 
BRANCH  51  52
ATOM     52  CG  ARG     6       0.522   5.141   8.580  1.00  0.00     0.029 C 
BRANCH  52  53
ATOM     53  CD  ARG     6      -0.944   5.320   8.962  1.00  0.00     0.145 C 
BRANCH  53  54
ATOM     54  NE  ARG     6      -1.829   4.697   7.964  1.00  0.00    -0.083 NA
ATOM     55  CZ  ARG     6      -2.724   5.350   7.198  1.00  0.00     0.782 C 
ATOM     56  NH2 ARG     6      -3.537   4.676   6.382  1.00  0.00     0.063 N 
ATOM     57  NH1 ARG     6      -2.868   6.666   7.308  1.00  0.00     0.063 N 
ENDBRANCH  53  54
ENDBRANCH  52  53
ENDBRANCH  51  52
ENDBRANCH   1  51
BRANCH   1  58
ATOM     58  C   ARG     6       2.522   8.111   7.870  1.00  0.00     0.274 C 
ATOM     59  N   ASN     7       3.220   8.693   8.842  1.00  0.00    -0.228 NA
ATOM     60  O   ARG     6       2.911   7.961   6.711  1.00  0.00    -0.268 OA
BRANCH  59  61
ATOM     61  CA  ASN     7       4.615   9.152   8.680  1.00  0.00     0.196 C 
BRANCH  61  62
ATOM     62  C   ASN     7       5.612   7.980   8.773  1.00  0.00     0.275 C 
ATOM     63  N   PHE     8       6.827   8.172   8.238  1.00  0.00    -0.228 NA
ATOM     64  O   ASN     7       5.401   7.140   9.626  1.00  0.00    -0.268 OA
BRANCH  63  65
ATOM     65  CA  PHE     8       7.946   7.201   8.303  1.00  0.00     0.191 C 
BRANCH  65  66
ATOM     66  CB  PHE     8       7.760   6.177   7.175  1.00  0.00     0.060 C 
BRANCH  66  67
ATOM     67  CG  PHE     8       8.389   4.799   7.455  1.00  0.00    -0.020 A 
ATOM     68  CD1 PHE     8       9.586   4.447   6.847  1.00  0.00    -0.004 A 
ATOM     69  CE1 PHE     8      10.101   3.163   7.021  1.00  0.00    -0.000 A 
ATOM     70  CZ  PHE     8       9.423   2.251   7.813  1.00  0.00    -0.000 A 
ATOM     71  CE2 PHE     8       8.230   2.606   8.434  1.00  0.00    -0.000 A 
ATOM     72  CD2 PHE     8       7.715   3.890   8.260  1.00  0.00    -0.004 A 
ENDBRANCH  66  67
ENDBRANCH  65  66
BRANCH  65  73
ATOM     73  C   PHE     8       9.358   7.829   8.279  1.00  0.00     0.275 C 
ATOM     74  N   TRP     9       9.863   8.107   7.075  1.00  0.00    -0.228 NA
ATOM     75  O   PHE     8      10.067   7.832   9.287  1.00  0.00    -0.268 OA
BRANCH  74  76
ATOM     76  CA  TRP     9      11.152   8.822   6.908  1.00  0.00     0.191 C 
BRANCH  76  77
ATOM     77  CB  TRP     9      12.205   7.831   6.388  1.00  0.00     0.062 C 
BRANCH  77  78
ATOM     78  CG  TRP     9      13.032   7.190   7.502  1.00  0.00     0.001 A 
ATOM     79  CD1 TRP     9      12.763   6.039   8.111  1.00  0.00     0.095 A 
ATOM     80  NE1 TRP     9      13.500   5.930   9.209  1.00  0.00    -0.244 NA
ATOM     81  CE2 TRP     9      14.278   6.996   9.328  1.00  0.00     0.081 A 
ATOM     82  CD2 TRP     9      14.001   7.837   8.262  1.00  0.00     0.015 A 
ATOM     83  CZ2 TRP     9      15.160   7.417  10.323  1.00  0.00     0.019 A 
ATOM     84  CE3 TRP     9      14.578   9.096   8.182  1.00  0.00     0.001 A 
ATOM     85  CZ3 TRP     9      15.448   9.523   9.180  1.00  0.00     0.000 A 
ATOM     86  CH2 TRP     9      15.749   8.670  10.240  1.00  0.00     0.002 A 
ENDBRANCH  77  78
ENDBRANCH  76  77
BRANCH  76  87
ATOM     87  C   TRP     9      11.073  10.087   6.024  1.00  0.00     0.275 C 
ATOM     88  O   TRP     9      10.033  10.733   5.939  1.00  0.00    -0.268 OA
ATOM     89  N   GLY    10      12.212  10.479   5.455  1.00  0.00    -0.226 NA
BRANCH  89  90
ATOM     90  CA  GLY    10      12.351  11.693   4.605  1.00  0.00     0.218 C 
BRANCH  90  91
ATOM     91  C   GLY    10      12.554  13.025   5.345  1.00  0.00     0.277 C 
ATOM     92  N   CYS    11      11.440  13.722   5.567  1.00  0.00    -0.228 NA
ATOM     93  O   GLY    10      13.682  13.462   5.544  1.00  0.00    -0.268 OA
BRANCH  92  94
ATOM     94  CA  CYS    11      11.337  15.019   6.273  1.00  0.00     0.198 C 
BRANCH  94  95
ATOM     95  C   CYS    11      10.475  14.810   7.533  1.00  0.00     0.275 C 
ATOM     96  O   CYS    11      10.133  15.787   8.190  1.00  0.00    -0.268 OA
ATOM     97  N   GLY    12      10.326  13.556   7.935  1.00  0.00    -0.225 NA
BRANCH  97  98
ATOM     98  CA  GLY    12       9.548  13.183   9.127  1.00  0.00     0.226 C 
BRANCH  98  99
ATOM     99  C   GLY    12       9.586  11.643   9.260  1.00  0.00     0.211 C 
ATOM    100  O1  GLY    12       8.505  11.033   9.066  1.00  0.00    -0.646 OA
ATOM    101  O2  GLY    12      10.683  11.110   9.513  1.00  0.00    -0.646 OA
ENDBRANCH  98  99
ENDBRANCH  97  98
ENDBRANCH  94  95
BRANCH  94 102
ATOM    102  CB  CYS    11      10.576  16.026   5.415  1.00  0.00     0.103 C 
ATOM    103  SG  CYS    11       9.594  15.329   4.031  1.00  0.00    -0.080 SA
ENDBRANCH  94 102
ENDBRANCH  92  94
ENDBRANCH  90  91
ENDBRANCH  89  90
ENDBRANCH  76  87
ENDBRANCH  74  76
ENDBRANCH  65  73
ENDBRANCH  63  65
ENDBRANCH  61  62
BRANCH  61 104
ATOM    104  CB  ASN     7       4.963  10.246   9.697  1.00  0.00     0.126 C 
BRANCH 104 105
ATOM    105  CG  ASN     7       5.146  11.653   9.098  1.00  0.00     0.276 C 
ATOM    106  ND2 ASN     7       5.213  11.717   7.788  1.00  0.00    -0.107 N 
ATOM    107  OD1 ASN     7       5.384  12.666   9.743  1.00  0.00    -0.269 OA
ENDBRANCH 104 105
ENDBRANCH  61 104
ENDBRANCH  59  61
ENDBRANCH   1  58
TORSDOF 42
ENDMDL
