MODEL 1
REMARK VINA RESULT:      -4.6      0.000      0.000
REMARK WARNING: 32 MAX_TORS EXCEEDED!!!
REMARK  42 active torsions:
REMARK  status: ('A' for Active; 'I' for Inactive)
REMARK    1  A    between atoms: CA_2  and  CB_3 
REMARK    2  A    between atoms: CA_2  and  C_11 
REMARK    3  A    between atoms: CB_3  and  CG_4 
REMARK       I    between atoms: C_11  and  N_13 
REMARK    4  A    between atoms: N_13  and  CA_14 
REMARK    5  A    between atoms: CA_14  and  CB_15 
REMARK    6  A    between atoms: CA_14  and  C_19 
REMARK    7  A    between atoms: CB_15  and  CG_16 
REMARK       I    between atoms: C_19  and  N_21 
REMARK    8  A    between atoms: CA_22  and  C_26 
REMARK       I    between atoms: C_26  and  N_28 
REMARK    9  A    between atoms: N_28  and  CA_29 
REMARK   10  A    between atoms: CA_29  and  C_35 
REMARK   11  A    between atoms: CA_29  and  CB_30 
REMARK   12  A    between atoms: CB_30  and  CG_31 
REMARK   13  A    between atoms: CG_31  and  CD_32 
REMARK       I    between atoms: C_35  and  N_37 
REMARK   14  A    between atoms: N_37  and  CA_38 
REMARK   15  A    between atoms: CA_38  and  CB_39 
REMARK   16  A    between atoms: CA_38  and  C_47 
REMARK   17  A    between atoms: CB_39  and  CG_40 
REMARK       I    between atoms: C_47  and  N_49 
REMARK   18  A    between atoms: N_49  and  CA_50 
REMARK   19  A    between atoms: CA_50  and  CB_51 
REMARK   20  A    between atoms: CA_50  and  C_58 
REMARK   21  A    between atoms: CB_51  and  CG_52 
REMARK   22  A    between atoms: CG_52  and  CD_53 
REMARK   23  A    between atoms: CD_53  and  NE_54 
REMARK       I    between atoms: C_58  and  N_60 
REMARK   24  A    between atoms: N_60  and  CA_61 
REMARK   25  A    between atoms: CA_61  and  C_66 
REMARK   26  A    between atoms: CA_61  and  CB_62 
REMARK   27  A    between atoms: CB_62  and  CG_63 
REMARK       I    between atoms: C_66  and  N_68 
REMARK   28  A    between atoms: N_68  and  CA_69 
REMARK   29  A    between atoms: CA_69  and  CB_70 
REMARK   30  A    between atoms: CA_69  and  C_77 
REMARK   31  A    between atoms: CB_70  and  CG_71 
REMARK       I    between atoms: C_77  and  N_79 
REMARK   32  A    between atoms: N_79  and  CA_80 
REMARK   33  A    between atoms: CA_80  and  CB_81 
REMARK   34  A    between atoms: CA_80  and  C_91 
REMARK   35  A    between atoms: CB_81  and  CG_82 
REMARK       I    between atoms: C_91  and  N_93 
REMARK   36  A    between atoms: N_93  and  CA_94 
REMARK   37  A    between atoms: CA_94  and  C_95 
REMARK       I    between atoms: C_95  and  N_97 
REMARK   38  A    between atoms: N_97  and  CA_98 
REMARK   39  A    between atoms: CA_98  and  C_101 
REMARK   40  A    between atoms: CA_98  and  CB_99 
REMARK       I    between atoms: C_101  and  N_103 
REMARK   41  A    between atoms: N_103  and  CA_104 
REMARK   42  A    between atoms: CA_104  and  C_105 
ROOT
ATOM      1  CA  ARG     6       6.999 -26.706  -5.194  1.00  0.00     0.186 C 
ENDROOT
BRANCH   1   2
ATOM      2  N   ARG     6       6.596 -28.059  -4.744  1.00  0.00    -0.229 NA
ATOM      3  C   TYR     5       5.958 -28.922  -5.546  1.00  0.00     0.275 C 
ATOM      4  O   TYR     5       5.691 -28.657  -6.718  1.00  0.00    -0.268 OA
BRANCH   3   5
ATOM      5  CA  TYR     5       5.664 -30.320  -4.978  1.00  0.00     0.191 C 
BRANCH   5   6
ATOM      6  N   TYR     5       6.680 -30.789  -4.000  1.00  0.00    -0.228 NA
ATOM      7  C   GLU     4       7.753 -31.517  -4.349  1.00  0.00     0.274 C 
ATOM      8  O   GLU     4       8.054 -31.734  -5.516  1.00  0.00    -0.268 OA
BRANCH   7   9
ATOM      9  CA  GLU     4       8.776 -31.796  -3.229  1.00  0.00     0.187 C 
BRANCH   9  10
ATOM     10  CB  GLU     4       8.567 -30.803  -2.074  1.00  0.00     0.045 C 
BRANCH  10  11
ATOM     11  CG  GLU     4       7.856 -31.355  -0.818  1.00  0.00     0.100 C 
BRANCH  11  12
ATOM     12  CD  GLU     4       8.473 -30.902   0.505  1.00  0.00     0.185 C 
ATOM     13  OE1 GLU     4       8.052 -29.824   1.000  1.00  0.00    -0.647 OA
ATOM     14  OE2 GLU     4       9.619 -31.324   0.762  1.00  0.00    -0.647 OA
ENDBRANCH  11  12
ENDBRANCH  10  11
ENDBRANCH   9  10
BRANCH   9  15
ATOM     15  N   GLU     4      10.177 -31.702  -3.682  1.00  0.00    -0.229 NA
ATOM     16  C   PRO     3      11.283 -31.858  -2.965  1.00  0.00     0.272 C 
ATOM     17  O   PRO     3      11.315 -32.468  -1.895  1.00  0.00    -0.269 OA
BRANCH  16  18
ATOM     18  CA  PRO     3      12.593 -31.694  -3.739  1.00  0.00     0.165 C 
ATOM     19  N   PRO     3      13.678 -31.025  -2.991  1.00  0.00    -0.312 N 
ATOM     20  CD  PRO     3      14.970 -31.699  -3.276  1.00  0.00     0.105 C 
ATOM     21  C   ASP     2      13.518 -29.886  -2.292  1.00  0.00     0.257 C 
ATOM     22  CG  PRO     3      14.643 -32.680  -4.413  1.00  0.00     0.027 C 
ATOM     23  CB  PRO     3      13.178 -33.034  -4.176  1.00  0.00     0.034 C 
ATOM     24  O   ASP     2      12.482 -29.215  -2.417  1.00  0.00    -0.270 OA
BRANCH  21  25
ATOM     25  CA  ASP     2      14.743 -29.229  -1.618  1.00  0.00     0.195 C 
BRANCH  25  26
ATOM     26  CB  ASP     2      14.939 -29.520  -0.108  1.00  0.00     0.132 C 
BRANCH  26  27
ATOM     27  CG  ASP     2      13.731 -30.296   0.450  1.00  0.00     0.188 C 
ATOM     28  OD2 ASP     2      12.928 -29.621   1.144  1.00  0.00    -0.647 OA
ATOM     29  OD1 ASP     2      13.905 -31.517   0.687  1.00  0.00    -0.647 OA
ENDBRANCH  26  27
ENDBRANCH  25  26
BRANCH  25  30
ATOM     30  N   ASP     2      14.671 -27.758  -1.652  1.00  0.00    -0.228 NA
ATOM     31  C   TYR     1      15.613 -26.934  -2.050  1.00  0.00     0.289 C 
ATOM     32  O   TYR     1      16.684 -27.212  -2.598  1.00  0.00    -0.268 OA
BRANCH  31  33
ATOM     33  CA  TYR     1      15.268 -25.481  -1.740  1.00  0.00     0.385 C 
ATOM     34  N   TYR     1      14.066 -25.128  -2.513  1.00  0.00     0.626 N 
BRANCH  33  35
ATOM     35  CB  TYR     1      15.046 -25.376  -0.234  1.00  0.00     0.075 C 
BRANCH  35  36
ATOM     36  CG  TYR     1      15.447 -24.009   0.340  1.00  0.00    -0.019 A 
ATOM     37  CD2 TYR     1      15.248 -23.699   1.677  1.00  0.00    -0.002 A 
ATOM     38  CE2 TYR     1      15.741 -22.513   2.199  1.00  0.00     0.027 A 
ATOM     39  CZ  TYR     1      16.431 -21.636   1.362  1.00  0.00     0.131 A 
ATOM     40  CE1 TYR     1      16.590 -21.933   0.020  1.00  0.00     0.027 A 
ATOM     41  OH  TYR     1      17.079 -20.573   1.879  1.00  0.00    -0.190 OA
ATOM     42  CD1 TYR     1      16.097 -23.119  -0.502  1.00  0.00    -0.002 A 
ENDBRANCH  35  36
ENDBRANCH  33  35
ENDBRANCH  31  33
ENDBRANCH  25  30
ENDBRANCH  21  25
ENDBRANCH  16  18
ENDBRANCH   9  15
ENDBRANCH   7   9
ENDBRANCH   5   6
BRANCH   5  43
ATOM     43  CB  TYR     5       4.262 -30.374  -4.349  1.00  0.00     0.060 C 
BRANCH  43  44
ATOM     44  CG  TYR     5       3.982 -31.721  -3.661  1.00  0.00    -0.020 A 
ATOM     45  CD2 TYR     5       3.815 -31.791  -2.284  1.00  0.00    -0.002 A 
ATOM     46  CE2 TYR     5       3.555 -33.013  -1.672  1.00  0.00     0.027 A 
ATOM     47  CZ  TYR     5       3.462 -34.165  -2.437  1.00  0.00     0.131 A 
ATOM     48  CE1 TYR     5       3.610 -34.101  -3.818  1.00  0.00     0.027 A 
ATOM     49  OH  TYR     5       3.349 -35.371  -1.839  1.00  0.00    -0.190 OA
ATOM     50  CD1 TYR     5       3.879 -32.876  -4.428  1.00  0.00    -0.002 A 
ENDBRANCH  43  44
ENDBRANCH   5  43
ENDBRANCH   3   5
ENDBRANCH   1   2
BRANCH   1  51
ATOM     51  CB  ARG     6       6.324 -25.592  -4.400  1.00  0.00     0.036 C 
BRANCH  51  52
ATOM     52  CG  ARG     6       4.823 -25.465  -4.673  1.00  0.00     0.029 C 
BRANCH  52  53
ATOM     53  CD  ARG     6       4.070 -25.180  -3.377  1.00  0.00     0.145 C 
BRANCH  53  54
ATOM     54  NE  ARG     6       4.255 -26.272  -2.407  1.00  0.00    -0.083 NA
ATOM     55  CZ  ARG     6       3.474 -27.364  -2.302  1.00  0.00     0.782 C 
ATOM     56  NH2 ARG     6       3.682 -28.255  -1.330  1.00  0.00     0.063 N 
ATOM     57  NH1 ARG     6       2.433 -27.525  -3.111  1.00  0.00     0.063 N 
ENDBRANCH  53  54
ENDBRANCH  52  53
ENDBRANCH  51  52
ENDBRANCH   1  51
BRANCH   1  58
ATOM     58  C   ARG     6       8.511 -26.475  -5.077  1.00  0.00     0.274 C 
ATOM     59  N   ASN     7       8.888 -25.213  -4.887  1.00  0.00    -0.228 NA
ATOM     60  O   ARG     6       9.275 -27.436  -5.165  1.00  0.00    -0.268 OA
BRANCH  59  61
ATOM     61  CA  ASN     7      10.290 -24.809  -4.653  1.00  0.00     0.196 C 
BRANCH  61  62
ATOM     62  C   ASN     7      10.375 -23.445  -3.941  1.00  0.00     0.275 C 
ATOM     63  N   PHE     8      11.601 -23.002  -3.623  1.00  0.00    -0.228 NA
ATOM     64  O   ASN     7       9.422 -22.699  -4.055  1.00  0.00    -0.268 OA
BRANCH  63  65
ATOM     65  CA  PHE     8      11.894 -21.681  -3.014  1.00  0.00     0.191 C 
BRANCH  65  66
ATOM     66  CB  PHE     8      13.041 -21.858  -2.010  1.00  0.00     0.060 C 
BRANCH  66  67
ATOM     67  CG  PHE     8      12.610 -21.789  -0.533  1.00  0.00    -0.020 A 
ATOM     68  CD1 PHE     8      12.969 -20.695   0.242  1.00  0.00    -0.004 A 
ATOM     69  CE1 PHE     8      12.667 -20.680   1.604  1.00  0.00    -0.000 A 
ATOM     70  CZ  PHE     8      11.997 -21.752   2.172  1.00  0.00    -0.000 A 
ATOM     71  CE2 PHE     8      11.625 -22.843   1.394  1.00  0.00    -0.000 A 
ATOM     72  CD2 PHE     8      11.927 -22.858   0.032  1.00  0.00    -0.004 A 
ENDBRANCH  66  67
ENDBRANCH  65  66
BRANCH  65  73
ATOM     73  C   PHE     8      12.188 -20.548  -4.023  1.00  0.00     0.275 C 
ATOM     74  N   TRP     9      12.376 -19.331  -3.511  1.00  0.00    -0.228 NA
ATOM     75  O   PHE     8      12.006 -20.713  -5.232  1.00  0.00    -0.268 OA
BRANCH  74  76
ATOM     76  CA  TRP     9      12.787 -18.178  -4.350  1.00  0.00     0.191 C 
BRANCH  76  77
ATOM     77  CB  TRP     9      12.173 -16.895  -3.765  1.00  0.00     0.062 C 
BRANCH  77  78
ATOM     78  CG  TRP     9      11.483 -17.117  -2.420  1.00  0.00     0.001 A 
ATOM     79  CD1 TRP     9      10.183 -16.979  -2.177  1.00  0.00     0.095 A 
ATOM     80  NE1 TRP     9       9.972 -16.956  -0.867  1.00  0.00    -0.244 NA
ATOM     81  CE2 TRP     9      11.125 -17.099  -0.230  1.00  0.00     0.081 A 
ATOM     82  CD2 TRP     9      12.123 -17.192  -1.187  1.00  0.00     0.015 A 
ATOM     83  CZ2 TRP     9      11.472 -17.057   1.120  1.00  0.00     0.019 A 
ATOM     84  CE3 TRP     9      13.460 -17.228  -0.818  1.00  0.00     0.001 A 
ATOM     85  CZ3 TRP     9      13.808 -17.173   0.527  1.00  0.00     0.000 A 
ATOM     86  CH2 TRP     9      12.807 -17.106   1.494  1.00  0.00     0.002 A 
ENDBRANCH  77  78
ENDBRANCH  76  77
BRANCH  76  87
ATOM     87  C   TRP     9      14.313 -18.040  -4.548  1.00  0.00     0.275 C 
ATOM     88  O   TRP     9      14.900 -18.701  -5.399  1.00  0.00    -0.268 OA
ATOM     89  N   GLY    10      14.919 -17.104  -3.819  1.00  0.00    -0.226 NA
BRANCH  89  90
ATOM     90  CA  GLY    10      16.372 -16.790  -3.897  1.00  0.00     0.218 C 
BRANCH  90  91
ATOM     91  C   GLY    10      17.106 -16.621  -2.557  1.00  0.00     0.277 C 
ATOM     92  N   CYS    11      18.054 -15.684  -2.549  1.00  0.00    -0.228 NA
ATOM     93  O   GLY    10      16.930 -17.419  -1.644  1.00  0.00    -0.268 OA
BRANCH  92  94
ATOM     94  CA  CYS    11      18.899 -15.294  -1.397  1.00  0.00     0.198 C 
BRANCH  94  95
ATOM     95  C   CYS    11      18.226 -14.099  -0.694  1.00  0.00     0.275 C 
ATOM     96  O   CYS    11      17.410 -14.314   0.196  1.00  0.00    -0.268 OA
ATOM     97  N   GLY    12      18.432 -12.910  -1.242  1.00  0.00    -0.225 NA
BRANCH  97  98
ATOM     98  CA  GLY    12      17.851 -11.669  -0.707  1.00  0.00     0.226 C 
BRANCH  98  99
ATOM     99  C   GLY    12      18.983 -10.623  -0.592  1.00  0.00     0.211 C 
ATOM    100  O1  GLY    12      20.057 -10.885  -1.191  1.00  0.00    -0.646 OA
ATOM    101  O2  GLY    12      18.748  -9.582   0.050  1.00  0.00    -0.646 OA
ENDBRANCH  98  99
ENDBRANCH  97  98
ENDBRANCH  94  95
BRANCH  94 102
ATOM    102  CB  CYS    11      20.249 -14.777  -1.887  1.00  0.00     0.103 C 
ATOM    103  SG  CYS    11      20.493 -14.750  -3.705  1.00  0.00    -0.080 SA
ENDBRANCH  94 102
ENDBRANCH  92  94
ENDBRANCH  90  91
ENDBRANCH  89  90
ENDBRANCH  76  87
ENDBRANCH  74  76
ENDBRANCH  65  73
ENDBRANCH  63  65
ENDBRANCH  61  62
BRANCH  61 104
ATOM    104  CB  ASN     7      11.089 -24.791  -5.963  1.00  0.00     0.126 C 
BRANCH 104 105
ATOM    105  CG  ASN     7      10.494 -23.905  -7.072  1.00  0.00     0.276 C 
ATOM    106  ND2 ASN     7       9.609 -24.478  -7.855  1.00  0.00    -0.107 N 
ATOM    107  OD1 ASN     7      10.892 -22.784  -7.366  1.00  0.00    -0.269 OA
ENDBRANCH 104 105
ENDBRANCH  61 104
ENDBRANCH  59  61
ENDBRANCH   1  58
TORSDOF 42
ENDMDL
MODEL 2
REMARK VINA RESULT:      -4.5     26.015     32.834
REMARK WARNING: 32 MAX_TORS EXCEEDED!!!
REMARK  42 active torsions:
REMARK  status: ('A' for Active; 'I' for Inactive)
REMARK    1  A    between atoms: CA_2  and  CB_3 
REMARK    2  A    between atoms: CA_2  and  C_11 
REMARK    3  A    between atoms: CB_3  and  CG_4 
REMARK       I    between atoms: C_11  and  N_13 
REMARK    4  A    between atoms: N_13  and  CA_14 
REMARK    5  A    between atoms: CA_14  and  CB_15 
REMARK    6  A    between atoms: CA_14  and  C_19 
REMARK    7  A    between atoms: CB_15  and  CG_16 
REMARK       I    between atoms: C_19  and  N_21 
REMARK    8  A    between atoms: CA_22  and  C_26 
REMARK       I    between atoms: C_26  and  N_28 
REMARK    9  A    between atoms: N_28  and  CA_29 
REMARK   10  A    between atoms: CA_29  and  C_35 
REMARK   11  A    between atoms: CA_29  and  CB_30 
REMARK   12  A    between atoms: CB_30  and  CG_31 
REMARK   13  A    between atoms: CG_31  and  CD_32 
REMARK       I    between atoms: C_35  and  N_37 
REMARK   14  A    between atoms: N_37  and  CA_38 
REMARK   15  A    between atoms: CA_38  and  CB_39 
REMARK   16  A    between atoms: CA_38  and  C_47 
REMARK   17  A    between atoms: CB_39  and  CG_40 
REMARK       I    between atoms: C_47  and  N_49 
REMARK   18  A    between atoms: N_49  and  CA_50 
REMARK   19  A    between atoms: CA_50  and  CB_51 
REMARK   20  A    between atoms: CA_50  and  C_58 
REMARK   21  A    between atoms: CB_51  and  CG_52 
REMARK   22  A    between atoms: CG_52  and  CD_53 
REMARK   23  A    between atoms: CD_53  and  NE_54 
REMARK       I    between atoms: C_58  and  N_60 
REMARK   24  A    between atoms: N_60  and  CA_61 
REMARK   25  A    between atoms: CA_61  and  C_66 
REMARK   26  A    between atoms: CA_61  and  CB_62 
REMARK   27  A    between atoms: CB_62  and  CG_63 
REMARK       I    between atoms: C_66  and  N_68 
REMARK   28  A    between atoms: N_68  and  CA_69 
REMARK   29  A    between atoms: CA_69  and  CB_70 
REMARK   30  A    between atoms: CA_69  and  C_77 
REMARK   31  A    between atoms: CB_70  and  CG_71 
REMARK       I    between atoms: C_77  and  N_79 
REMARK   32  A    between atoms: N_79  and  CA_80 
REMARK   33  A    between atoms: CA_80  and  CB_81 
REMARK   34  A    between atoms: CA_80  and  C_91 
REMARK   35  A    between atoms: CB_81  and  CG_82 
REMARK       I    between atoms: C_91  and  N_93 
REMARK   36  A    between atoms: N_93  and  CA_94 
REMARK   37  A    between atoms: CA_94  and  C_95 
REMARK       I    between atoms: C_95  and  N_97 
REMARK   38  A    between atoms: N_97  and  CA_98 
REMARK   39  A    between atoms: CA_98  and  C_101 
REMARK   40  A    between atoms: CA_98  and  CB_99 
REMARK       I    between atoms: C_101  and  N_103 
REMARK   41  A    between atoms: N_103  and  CA_104 
REMARK   42  A    between atoms: CA_104  and  C_105 
ROOT
ATOM      1  CA  ARG     6     -11.838  -2.202  -4.550  1.00  0.00     0.186 C 
ENDROOT
BRANCH   1   2
ATOM      2  N   ARG     6     -11.226  -2.869  -3.377  1.00  0.00    -0.229 NA
ATOM      3  C   TYR     5     -11.955  -3.347  -2.361  1.00  0.00     0.275 C 
ATOM      4  O   TYR     5     -13.185  -3.291  -2.349  1.00  0.00    -0.268 OA
BRANCH   3   5
ATOM      5  CA  TYR     5     -11.201  -4.083  -1.241  1.00  0.00     0.191 C 
BRANCH   5   6
ATOM      6  N   TYR     5     -10.623  -3.172  -0.218  1.00  0.00    -0.228 NA
ATOM      7  C   GLU     4     -11.365  -2.549   0.712  1.00  0.00     0.274 C 
ATOM      8  O   GLU     4     -12.554  -2.790   0.879  1.00  0.00    -0.268 OA
BRANCH   7   9
ATOM      9  CA  GLU     4     -10.585  -1.754   1.779  1.00  0.00     0.187 C 
BRANCH   9  10
ATOM     10  CB  GLU     4     -10.500  -2.571   3.079  1.00  0.00     0.045 C 
BRANCH  10  11
ATOM     11  CG  GLU     4      -9.079  -2.902   3.586  1.00  0.00     0.100 C 
BRANCH  11  12
ATOM     12  CD  GLU     4      -8.659  -4.356   3.374  1.00  0.00     0.185 C 
ATOM     13  OE1 GLU     4      -7.506  -4.686   3.758  1.00  0.00    -0.647 OA
ATOM     14  OE2 GLU     4      -9.236  -4.980   2.461  1.00  0.00    -0.647 OA
ENDBRANCH  11  12
ENDBRANCH  10  11
ENDBRANCH   9  10
BRANCH   9  15
ATOM     15  N   GLU     4     -11.188  -0.443   2.085  1.00  0.00    -0.229 NA
ATOM     16  C   PRO     3     -10.757   0.478   2.940  1.00  0.00     0.272 C 
ATOM     17  O   PRO     3      -9.592   0.542   3.336  1.00  0.00    -0.269 OA
BRANCH  16  18
ATOM     18  CA  PRO     3     -11.618   1.740   3.028  1.00  0.00     0.165 C 
ATOM     19  N   PRO     3     -12.174   2.204   1.739  1.00  0.00    -0.312 N 
ATOM     20  CD  PRO     3     -13.572   2.665   1.936  1.00  0.00     0.105 C 
ATOM     21  C   ASP     2     -11.453   2.327   0.610  1.00  0.00     0.257 C 
ATOM     22  CG  PRO     3     -13.762   2.661   3.461  1.00  0.00     0.027 C 
ATOM     23  CB  PRO     3     -12.828   1.553   3.940  1.00  0.00     0.034 C 
ATOM     24  O   ASP     2     -10.215   2.258   0.646  1.00  0.00    -0.270 OA
BRANCH  21  25
ATOM     25  CA  ASP     2     -12.120   2.904  -0.659  1.00  0.00     0.195 C 
BRANCH  25  26
ATOM     26  CB  ASP     2     -12.956   1.913  -1.510  1.00  0.00     0.132 C 
BRANCH  26  27
ATOM     27  CG  ASP     2     -14.367   2.478  -1.761  1.00  0.00     0.188 C 
ATOM     28  OD2 ASP     2     -15.294   1.927  -1.113  1.00  0.00    -0.647 OA
ATOM     29  OD1 ASP     2     -14.587   2.962  -2.899  1.00  0.00    -0.647 OA
ENDBRANCH  26  27
ENDBRANCH  25  26
BRANCH  25  30
ATOM     30  N   ASP     2     -11.129   3.398  -1.630  1.00  0.00    -0.228 NA
ATOM     31  C   TYR     1     -10.808   4.651  -1.855  1.00  0.00     0.289 C 
ATOM     32  O   TYR     1     -11.158   5.652  -1.222  1.00  0.00    -0.268 OA
BRANCH  31  33
ATOM     33  CA  TYR     1      -9.907   4.799  -3.077  1.00  0.00     0.385 C 
ATOM     34  N   TYR     1     -10.192   3.677  -3.986  1.00  0.00     0.626 N 
BRANCH  33  35
ATOM     35  CB  TYR     1     -10.215   6.155  -3.708  1.00  0.00     0.075 C 
BRANCH  35  36
ATOM     36  CG  TYR     1      -8.960   6.881  -4.216  1.00  0.00    -0.019 A 
ATOM     37  CD2 TYR     1      -8.034   6.243  -5.026  1.00  0.00    -0.002 A 
ATOM     38  CE2 TYR     1      -6.982   6.957  -5.580  1.00  0.00     0.027 A 
ATOM     39  CZ  TYR     1      -6.866   8.319  -5.307  1.00  0.00     0.131 A 
ATOM     40  CE1 TYR     1      -7.771   8.941  -4.464  1.00  0.00     0.027 A 
ATOM     41  OH  TYR     1      -5.971   9.072  -5.977  1.00  0.00    -0.190 OA
ATOM     42  CD1 TYR     1      -8.822   8.227  -3.910  1.00  0.00    -0.002 A 
ENDBRANCH  35  36
ENDBRANCH  33  35
ENDBRANCH  31  33
ENDBRANCH  25  30
ENDBRANCH  21  25
ENDBRANCH  16  18
ENDBRANCH   9  15
ENDBRANCH   7   9
ENDBRANCH   5   6
BRANCH   5  43
ATOM     43  CB  TYR     5     -12.103  -5.130  -0.566  1.00  0.00     0.060 C 
BRANCH  43  44
ATOM     44  CG  TYR     5     -11.579  -6.563  -0.759  1.00  0.00    -0.020 A 
ATOM     45  CD2 TYR     5     -11.785  -7.528   0.218  1.00  0.00    -0.002 A 
ATOM     46  CE2 TYR     5     -11.314  -8.824   0.031  1.00  0.00     0.027 A 
ATOM     47  CZ  TYR     5     -10.635  -9.154  -1.132  1.00  0.00     0.131 A 
ATOM     48  CE1 TYR     5     -10.440  -8.198  -2.122  1.00  0.00     0.027 A 
ATOM     49  OH  TYR     5     -10.055 -10.367  -1.260  1.00  0.00    -0.190 OA
ATOM     50  CD1 TYR     5     -10.906  -6.897  -1.928  1.00  0.00    -0.002 A 
ENDBRANCH  43  44
ENDBRANCH   5  43
ENDBRANCH   3   5
ENDBRANCH   1   2
BRANCH   1  51
ATOM     51  CB  ARG     6     -11.719  -0.683  -4.498  1.00  0.00     0.036 C 
BRANCH  51  52
ATOM     52  CG  ARG     6     -13.063   0.043  -4.590  1.00  0.00     0.029 C 
BRANCH  52  53
ATOM     53  CD  ARG     6     -14.211  -0.961  -4.579  1.00  0.00     0.145 C 
BRANCH  53  54
ATOM     54  NE  ARG     6     -15.294  -0.516  -3.687  1.00  0.00    -0.083 NA
ATOM     55  CZ  ARG     6     -16.283  -1.295  -3.208  1.00  0.00     0.782 C 
ATOM     56  NH2 ARG     6     -17.264  -0.769  -2.472  1.00  0.00     0.063 N 
ATOM     57  NH1 ARG     6     -16.340  -2.581  -3.534  1.00  0.00     0.063 N 
ENDBRANCH  53  54
ENDBRANCH  52  53
ENDBRANCH  51  52
ENDBRANCH   1  51
BRANCH   1  58
ATOM     58  C   ARG     6     -11.206  -2.648  -5.874  1.00  0.00     0.274 C 
ATOM     59  N   ASN     7     -10.647  -3.855  -5.869  1.00  0.00    -0.228 NA
ATOM     60  O   ARG     6     -11.242  -1.888  -6.843  1.00  0.00    -0.268 OA
BRANCH  59  61
ATOM     61  CA  ASN     7     -10.076  -4.493  -7.074  1.00  0.00     0.196 C 
BRANCH  61  62
ATOM     62  C   ASN     7     -10.632  -5.915  -7.279  1.00  0.00     0.275 C 
ATOM     63  N   PHE     8      -9.736  -6.897  -7.463  1.00  0.00    -0.228 NA
ATOM     64  O   ASN     7     -11.763  -6.130  -6.888  1.00  0.00    -0.268 OA
BRANCH  63  65
ATOM     65  CA  PHE     8     -10.069  -8.336  -7.591  1.00  0.00     0.191 C 
BRANCH  65  66
ATOM     66  CB  PHE     8      -9.024  -8.993  -8.504  1.00  0.00     0.060 C 
BRANCH  66  67
ATOM     67  CG  PHE     8      -7.771  -9.506  -7.769  1.00  0.00    -0.020 A 
ATOM     68  CD1 PHE     8      -6.761  -8.619  -7.419  1.00  0.00    -0.004 A 
ATOM     69  CE1 PHE     8      -5.584  -9.099  -6.847  1.00  0.00    -0.000 A 
ATOM     70  CZ  PHE     8      -5.434 -10.457  -6.616  1.00  0.00    -0.000 A 
ATOM     71  CE2 PHE     8      -6.450 -11.345  -6.954  1.00  0.00    -0.000 A 
ATOM     72  CD2 PHE     8      -7.628 -10.866  -7.526  1.00  0.00    -0.004 A 
ENDBRANCH  66  67
ENDBRANCH  65  66
BRANCH  65  73
ATOM     73  C   PHE     8     -10.215  -9.094  -6.252  1.00  0.00     0.275 C 
ATOM     74  N   TRP     9     -11.150 -10.045  -6.207  1.00  0.00    -0.228 NA
ATOM     75  O   PHE     8      -9.680  -8.673  -5.224  1.00  0.00    -0.268 OA
BRANCH  74  76
ATOM     76  CA  TRP     9     -11.315 -10.932  -5.029  1.00  0.00     0.191 C 
BRANCH  76  77
ATOM     77  CB  TRP     9     -12.817 -11.128  -4.763  1.00  0.00     0.062 C 
BRANCH  77  78
ATOM     78  CG  TRP     9     -13.300 -10.424  -3.495  1.00  0.00     0.001 A 
ATOM     79  CD1 TRP     9     -13.734 -11.020  -2.388  1.00  0.00     0.095 A 
ATOM     80  NE1 TRP     9     -14.344 -10.133  -1.612  1.00  0.00    -0.244 NA
ATOM     81  CE2 TRP     9     -14.303  -8.939  -2.185  1.00  0.00     0.081 A 
ATOM     82  CD2 TRP     9     -13.654  -9.082  -3.402  1.00  0.00     0.015 A 
ATOM     83  CZ2 TRP     9     -14.858  -7.706  -1.845  1.00  0.00     0.019 A 
ATOM     84  CE3 TRP     9     -13.565  -8.019  -4.289  1.00  0.00     0.001 A 
ATOM     85  CZ3 TRP     9     -14.129  -6.792  -3.957  1.00  0.00     0.000 A 
ATOM     86  CH2 TRP     9     -14.759  -6.637  -2.723  1.00  0.00     0.002 A 
ENDBRANCH  77  78
ENDBRANCH  76  77
BRANCH  76  87
ATOM     87  C   TRP     9     -10.574 -12.284  -5.136  1.00  0.00     0.275 C 
ATOM     88  O   TRP     9     -10.336 -12.787  -6.230  1.00  0.00    -0.268 OA
ATOM     89  N   GLY    10     -10.131 -12.804  -3.992  1.00  0.00    -0.226 NA
BRANCH  89  90
ATOM     90  CA  GLY    10      -9.359 -14.073  -3.891  1.00  0.00     0.218 C 
BRANCH  90  91
ATOM     91  C   GLY    10     -10.040 -15.227  -3.137  1.00  0.00     0.277 C 
ATOM     92  N   CYS    11     -11.044 -14.864  -2.341  1.00  0.00    -0.228 NA
ATOM     93  O   GLY    10      -9.557 -16.353  -3.154  1.00  0.00    -0.268 OA
BRANCH  92  94
ATOM     94  CA  CYS    11     -11.886 -15.762  -1.519  1.00  0.00     0.198 C 
BRANCH  94  95
ATOM     95  C   CYS    11     -13.350 -15.299  -1.651  1.00  0.00     0.275 C 
ATOM     96  O   CYS    11     -13.750 -14.890  -2.735  1.00  0.00    -0.268 OA
ATOM     97  N   GLY    12     -14.030 -15.188  -0.519  1.00  0.00    -0.225 NA
BRANCH  97  98
ATOM     98  CA  GLY    12     -15.432 -14.744  -0.465  1.00  0.00     0.226 C 
BRANCH  98  99
ATOM     99  C   GLY    12     -15.474 -13.384   0.269  1.00  0.00     0.211 C 
ATOM    100  O1  GLY    12     -14.369 -12.894   0.612  1.00  0.00    -0.646 OA
ATOM    101  O2  GLY    12     -16.586 -12.852   0.440  1.00  0.00    -0.646 OA
ENDBRANCH  98  99
ENDBRANCH  97  98
ENDBRANCH  94  95
BRANCH  94 102
ATOM    102  CB  CYS    11     -11.536 -15.604  -0.041  1.00  0.00     0.103 C 
ATOM    103  SG  CYS    11     -11.029 -17.133   0.838  1.00  0.00    -0.080 SA
ENDBRANCH  94 102
ENDBRANCH  92  94
ENDBRANCH  90  91
ENDBRANCH  89  90
ENDBRANCH  76  87
ENDBRANCH  74  76
ENDBRANCH  65  73
ENDBRANCH  63  65
ENDBRANCH  61  62
BRANCH  61 104
ATOM    104  CB  ASN     7      -8.543  -4.508  -7.022  1.00  0.00     0.126 C 
BRANCH 104 105
ATOM    105  CG  ASN     7      -7.942  -4.435  -5.606  1.00  0.00     0.276 C 
ATOM    106  ND2 ASN     7      -7.452  -3.271  -5.247  1.00  0.00    -0.107 N 
ATOM    107  OD1 ASN     7      -7.753  -5.397  -4.873  1.00  0.00    -0.269 OA
ENDBRANCH 104 105
ENDBRANCH  61 104
ENDBRANCH  59  61
ENDBRANCH   1  58
TORSDOF 42
ENDMDL
MODEL 3
REMARK VINA RESULT:      -4.5     27.290     34.844
REMARK WARNING: 32 MAX_TORS EXCEEDED!!!
REMARK  42 active torsions:
REMARK  status: ('A' for Active; 'I' for Inactive)
REMARK    1  A    between atoms: CA_2  and  CB_3 
REMARK    2  A    between atoms: CA_2  and  C_11 
REMARK    3  A    between atoms: CB_3  and  CG_4 
REMARK       I    between atoms: C_11  and  N_13 
REMARK    4  A    between atoms: N_13  and  CA_14 
REMARK    5  A    between atoms: CA_14  and  CB_15 
REMARK    6  A    between atoms: CA_14  and  C_19 
REMARK    7  A    between atoms: CB_15  and  CG_16 
REMARK       I    between atoms: C_19  and  N_21 
REMARK    8  A    between atoms: CA_22  and  C_26 
REMARK       I    between atoms: C_26  and  N_28 
REMARK    9  A    between atoms: N_28  and  CA_29 
REMARK   10  A    between atoms: CA_29  and  C_35 
REMARK   11  A    between atoms: CA_29  and  CB_30 
REMARK   12  A    between atoms: CB_30  and  CG_31 
REMARK   13  A    between atoms: CG_31  and  CD_32 
REMARK       I    between atoms: C_35  and  N_37 
REMARK   14  A    between atoms: N_37  and  CA_38 
REMARK   15  A    between atoms: CA_38  and  CB_39 
REMARK   16  A    between atoms: CA_38  and  C_47 
REMARK   17  A    between atoms: CB_39  and  CG_40 
REMARK       I    between atoms: C_47  and  N_49 
REMARK   18  A    between atoms: N_49  and  CA_50 
REMARK   19  A    between atoms: CA_50  and  CB_51 
REMARK   20  A    between atoms: CA_50  and  C_58 
REMARK   21  A    between atoms: CB_51  and  CG_52 
REMARK   22  A    between atoms: CG_52  and  CD_53 
REMARK   23  A    between atoms: CD_53  and  NE_54 
REMARK       I    between atoms: C_58  and  N_60 
REMARK   24  A    between atoms: N_60  and  CA_61 
REMARK   25  A    between atoms: CA_61  and  C_66 
REMARK   26  A    between atoms: CA_61  and  CB_62 
REMARK   27  A    between atoms: CB_62  and  CG_63 
REMARK       I    between atoms: C_66  and  N_68 
REMARK   28  A    between atoms: N_68  and  CA_69 
REMARK   29  A    between atoms: CA_69  and  CB_70 
REMARK   30  A    between atoms: CA_69  and  C_77 
REMARK   31  A    between atoms: CB_70  and  CG_71 
REMARK       I    between atoms: C_77  and  N_79 
REMARK   32  A    between atoms: N_79  and  CA_80 
REMARK   33  A    between atoms: CA_80  and  CB_81 
REMARK   34  A    between atoms: CA_80  and  C_91 
REMARK   35  A    between atoms: CB_81  and  CG_82 
REMARK       I    between atoms: C_91  and  N_93 
REMARK   36  A    between atoms: N_93  and  CA_94 
REMARK   37  A    between atoms: CA_94  and  C_95 
REMARK       I    between atoms: C_95  and  N_97 
REMARK   38  A    between atoms: N_97  and  CA_98 
REMARK   39  A    between atoms: CA_98  and  C_101 
REMARK   40  A    between atoms: CA_98  and  CB_99 
REMARK       I    between atoms: C_101  and  N_103 
REMARK   41  A    between atoms: N_103  and  CA_104 
REMARK   42  A    between atoms: CA_104  and  C_105 
ROOT
ATOM      1  CA  ARG     6     -12.231  -2.118  -0.914  1.00  0.00     0.186 C 
ENDROOT
BRANCH   1   2
ATOM      2  N   ARG     6     -11.634  -0.801  -1.236  1.00  0.00    -0.229 NA
ATOM      3  C   TYR     5     -11.556   0.191  -0.338  1.00  0.00     0.275 C 
ATOM      4  O   TYR     5     -11.949   0.062   0.821  1.00  0.00    -0.268 OA
BRANCH   3   5
ATOM      5  CA  TYR     5     -10.845   1.481  -0.780  1.00  0.00     0.191 C 
BRANCH   5   6
ATOM      6  N   TYR     5     -11.392   2.059  -2.035  1.00  0.00    -0.228 NA
ATOM      7  C   GLU     4     -10.633   2.701  -2.938  1.00  0.00     0.274 C 
ATOM      8  O   GLU     4      -9.411   2.739  -2.867  1.00  0.00    -0.268 OA
BRANCH   7   9
ATOM      9  CA  GLU     4     -11.339   3.112  -4.246  1.00  0.00     0.187 C 
BRANCH   9  10
ATOM     10  CB  GLU     4     -11.287   1.951  -5.253  1.00  0.00     0.045 C 
BRANCH  10  11
ATOM     11  CG  GLU     4     -12.609   1.617  -5.979  1.00  0.00     0.100 C 
BRANCH  11  12
ATOM     12  CD  GLU     4     -13.484   0.595  -5.254  1.00  0.00     0.185 C 
ATOM     13  OE1 GLU     4     -14.725   0.805  -5.239  1.00  0.00    -0.647 OA
ATOM     14  OE2 GLU     4     -12.935  -0.080  -4.361  1.00  0.00    -0.647 OA
ENDBRANCH  11  12
ENDBRANCH  10  11
ENDBRANCH   9  10
BRANCH   9  15
ATOM     15  N   GLU     4     -10.749   4.309  -4.876  1.00  0.00    -0.229 NA
ATOM     16  C   PRO     3     -11.338   5.187  -5.678  1.00  0.00     0.272 C 
ATOM     17  O   PRO     3     -12.559   5.349  -5.725  1.00  0.00    -0.269 OA
BRANCH  16  18
ATOM     18  CA  PRO     3     -10.442   6.326  -6.169  1.00  0.00     0.165 C 
ATOM     19  N   PRO     3      -9.681   7.020  -5.108  1.00  0.00    -0.312 N 
ATOM     20  CD  PRO     3      -8.307   7.314  -5.589  1.00  0.00     0.105 C 
ATOM     21  C   ASP     2     -10.223   7.448  -3.953  1.00  0.00     0.257 C 
ATOM     22  CG  PRO     3      -8.344   6.955  -7.083  1.00  0.00     0.027 C 
ATOM     23  CB  PRO     3      -9.389   5.846  -7.165  1.00  0.00     0.034 C 
ATOM     24  O   ASP     2     -11.454   7.470  -3.809  1.00  0.00    -0.270 OA
BRANCH  21  25
ATOM     25  CA  ASP     2      -9.351   8.239  -2.951  1.00  0.00     0.195 C 
BRANCH  25  26
ATOM     26  CB  ASP     2      -9.685   8.052  -1.449  1.00  0.00     0.132 C 
BRANCH  26  27
ATOM     27  CG  ASP     2     -10.544   9.224  -0.939  1.00  0.00     0.188 C 
ATOM     28  OD2 ASP     2     -10.057   9.877   0.018  1.00  0.00    -0.647 OA
ATOM     29  OD1 ASP     2     -11.789   9.105  -1.060  1.00  0.00    -0.647 OA
ENDBRANCH  26  27
ENDBRANCH  25  26
BRANCH  25  30
ATOM     30  N   ASP     2      -9.486   9.695  -3.128  1.00  0.00    -0.228 NA
ATOM     31  C   TYR     1      -8.610  10.503  -3.678  1.00  0.00     0.289 C 
ATOM     32  O   TYR     1      -7.570  10.206  -4.275  1.00  0.00    -0.268 OA
BRANCH  31  33
ATOM     33  CA  TYR     1      -8.991  11.969  -3.493  1.00  0.00     0.385 C 
ATOM     34  N   TYR     1     -10.242  12.015  -2.718  1.00  0.00     0.626 N 
BRANCH  33  35
ATOM     35  CB  TYR     1      -7.831  12.653  -2.773  1.00  0.00     0.075 C 
BRANCH  35  36
ATOM     36  CG  TYR     1      -7.638  12.152  -1.334  1.00  0.00    -0.019 A 
ATOM     37  CD2 TYR     1      -6.878  11.026  -1.057  1.00  0.00    -0.002 A 
ATOM     38  CE2 TYR     1      -6.607  10.673   0.256  1.00  0.00     0.027 A 
ATOM     39  CZ  TYR     1      -7.113  11.460   1.290  1.00  0.00     0.131 A 
ATOM     40  CE1 TYR     1      -7.905  12.558   1.007  1.00  0.00     0.027 A 
ATOM     41  OH  TYR     1      -6.713  11.250   2.560  1.00  0.00    -0.190 OA
ATOM     42  CD1 TYR     1      -8.176  12.911  -0.306  1.00  0.00    -0.002 A 
ENDBRANCH  35  36
ENDBRANCH  33  35
ENDBRANCH  31  33
ENDBRANCH  25  30
ENDBRANCH  21  25
ENDBRANCH  16  18
ENDBRANCH   9  15
ENDBRANCH   7   9
ENDBRANCH   5   6
BRANCH   5  43
ATOM     43  CB  TYR     5     -10.872   2.533   0.341  1.00  0.00     0.060 C 
BRANCH  43  44
ATOM     44  CG  TYR     5     -11.966   3.591   0.123  1.00  0.00    -0.020 A 
ATOM     45  CD2 TYR     5     -11.647   4.844  -0.384  1.00  0.00    -0.002 A 
ATOM     46  CE2 TYR     5     -12.646   5.792  -0.586  1.00  0.00     0.027 A 
ATOM     47  CZ  TYR     5     -13.963   5.488  -0.280  1.00  0.00     0.131 A 
ATOM     48  CE1 TYR     5     -14.293   4.229   0.212  1.00  0.00     0.027 A 
ATOM     49  OH  TYR     5     -14.915   6.444  -0.340  1.00  0.00    -0.190 OA
ATOM     50  CD1 TYR     5     -13.289   3.284   0.421  1.00  0.00    -0.002 A 
ENDBRANCH  43  44
ENDBRANCH   5  43
ENDBRANCH   3   5
ENDBRANCH   1   2
BRANCH   1  51
ATOM     51  CB  ARG     6     -13.414  -2.468  -1.811  1.00  0.00     0.036 C 
BRANCH  51  52
ATOM     52  CG  ARG     6     -14.768  -2.047  -1.235  1.00  0.00     0.029 C 
BRANCH  52  53
ATOM     53  CD  ARG     6     -15.452  -1.047  -2.164  1.00  0.00     0.145 C 
BRANCH  53  54
ATOM     54  NE  ARG     6     -16.096  -1.734  -3.296  1.00  0.00    -0.083 NA
ATOM     55  CZ  ARG     6     -17.204  -1.315  -3.936  1.00  0.00     0.782 C 
ATOM     56  NH2 ARG     6     -17.753  -2.059  -4.899  1.00  0.00     0.063 N 
ATOM     57  NH1 ARG     6     -17.815  -0.198  -3.558  1.00  0.00     0.063 N 
ENDBRANCH  53  54
ENDBRANCH  52  53
ENDBRANCH  51  52
ENDBRANCH   1  51
BRANCH   1  58
ATOM     58  C   ARG     6     -11.224  -3.267  -1.047  1.00  0.00     0.274 C 
ATOM     59  N   ASN     7     -11.670  -4.356  -1.667  1.00  0.00    -0.228 NA
ATOM     60  O   ARG     6     -10.091  -3.130  -0.583  1.00  0.00    -0.268 OA
BRANCH  59  61
ATOM     61  CA  ASN     7     -10.819  -5.524  -1.975  1.00  0.00     0.196 C 
BRANCH  61  62
ATOM     62  C   ASN     7     -10.284  -5.471  -3.419  1.00  0.00     0.275 C 
ATOM     63  N   PHE     8      -9.649  -6.562  -3.872  1.00  0.00    -0.228 NA
ATOM     64  O   ASN     7     -10.783  -4.650  -4.165  1.00  0.00    -0.268 OA
BRANCH  63  65
ATOM     65  CA  PHE     8      -9.141  -6.735  -5.255  1.00  0.00     0.191 C 
BRANCH  65  66
ATOM     66  CB  PHE     8      -7.684  -6.253  -5.296  1.00  0.00     0.060 C 
BRANCH  66  67
ATOM     67  CG  PHE     8      -7.463  -4.965  -6.112  1.00  0.00    -0.020 A 
ATOM     68  CD1 PHE     8      -7.059  -5.046  -7.438  1.00  0.00    -0.004 A 
ATOM     69  CE1 PHE     8      -6.760  -3.882  -8.145  1.00  0.00    -0.000 A 
ATOM     70  CZ  PHE     8      -6.883  -2.650  -7.524  1.00  0.00    -0.000 A 
ATOM     71  CE2 PHE     8      -7.301  -2.565  -6.200  1.00  0.00    -0.000 A 
ATOM     72  CD2 PHE     8      -7.600  -3.730  -5.493  1.00  0.00    -0.004 A 
ENDBRANCH  66  67
ENDBRANCH  65  66
BRANCH  65  73
ATOM     73  C   PHE     8      -9.287  -8.162  -5.830  1.00  0.00     0.275 C 
ATOM     74  N   TRP     9      -9.089  -9.168  -4.978  1.00  0.00    -0.228 NA
ATOM     75  O   PHE     8      -9.329  -8.353  -7.048  1.00  0.00    -0.268 OA
BRANCH  74  76
ATOM     76  CA  TRP     9      -9.317 -10.583  -5.363  1.00  0.00     0.191 C 
BRANCH  76  77
ATOM     77  CB  TRP     9      -8.229 -11.455  -4.714  1.00  0.00     0.062 C 
BRANCH  77  78
ATOM     78  CG  TRP     9      -7.006 -11.655  -5.608  1.00  0.00     0.001 A 
ATOM     79  CD1 TRP     9      -6.370 -10.705  -6.286  1.00  0.00     0.095 A 
ATOM     80  NE1 TRP     9      -5.554 -11.257  -7.175  1.00  0.00    -0.244 NA
ATOM     81  CE2 TRP     9      -5.626 -12.577  -7.082  1.00  0.00     0.081 A 
ATOM     82  CD2 TRP     9      -6.556 -12.877  -6.099  1.00  0.00     0.015 A 
ATOM     83  CZ2 TRP     9      -5.057 -13.610  -7.826  1.00  0.00     0.019 A 
ATOM     84  CE3 TRP     9      -6.936 -14.189  -5.857  1.00  0.00     0.001 A 
ATOM     85  CZ3 TRP     9      -6.380 -15.220  -6.607  1.00  0.00     0.000 A 
ATOM     86  CH2 TRP     9      -5.425 -14.924  -7.579  1.00  0.00     0.002 A 
ENDBRANCH  77  78
ENDBRANCH  76  77
BRANCH  76  87
ATOM     87  C   TRP     9     -10.734 -11.113  -5.049  1.00  0.00     0.275 C 
ATOM     88  O   TRP     9     -11.648 -10.986  -5.859  1.00  0.00    -0.268 OA
ATOM     89  N   GLY    10     -10.870 -11.792  -3.911  1.00  0.00    -0.226 NA
BRANCH  89  90
ATOM     90  CA  GLY    10     -12.141 -12.416  -3.454  1.00  0.00     0.218 C 
BRANCH  90  91
ATOM     91  C   GLY    10     -12.148 -13.950  -3.346  1.00  0.00     0.277 C 
ATOM     92  N   CYS    11     -11.297 -14.575  -4.159  1.00  0.00    -0.228 NA
ATOM     93  O   GLY    10     -13.005 -14.525  -2.684  1.00  0.00    -0.268 OA
BRANCH  92  94
ATOM     94  CA  CYS    11     -11.078 -16.036  -4.251  1.00  0.00     0.198 C 
BRANCH  94  95
ATOM     95  C   CYS    11      -9.969 -16.417  -3.251  1.00  0.00     0.275 C 
ATOM     96  O   CYS    11      -8.847 -15.945  -3.398  1.00  0.00    -0.268 OA
ATOM     97  N   GLY    12     -10.258 -17.396  -2.406  1.00  0.00    -0.225 NA
BRANCH  97  98
ATOM     98  CA  GLY    12      -9.308 -17.892  -1.399  1.00  0.00     0.226 C 
BRANCH  98  99
ATOM     99  C   GLY    12      -9.483 -19.425  -1.291  1.00  0.00     0.211 C 
ATOM    100  O1  GLY    12      -9.339 -19.931  -0.150  1.00  0.00    -0.646 OA
ATOM    101  O2  GLY    12      -9.789 -20.048  -2.325  1.00  0.00    -0.646 OA
ENDBRANCH  98  99
ENDBRANCH  97  98
ENDBRANCH  94  95
BRANCH  94 102
ATOM    102  CB  CYS    11     -10.532 -16.400  -5.630  1.00  0.00     0.103 C 
ATOM    103  SG  CYS    11     -11.645 -16.074  -7.051  1.00  0.00    -0.080 SA
ENDBRANCH  94 102
ENDBRANCH  92  94
ENDBRANCH  90  91
ENDBRANCH  89  90
ENDBRANCH  76  87
ENDBRANCH  74  76
ENDBRANCH  65  73
ENDBRANCH  63  65
ENDBRANCH  61  62
BRANCH  61 104
ATOM    104  CB  ASN     7     -11.565  -6.840  -1.718  1.00  0.00     0.126 C 
BRANCH 104 105
ATOM    105  CG  ASN     7     -10.739  -7.921  -0.997  1.00  0.00     0.276 C 
ATOM    106  ND2 ASN     7     -10.615  -9.067  -1.627  1.00  0.00    -0.107 N 
ATOM    107  OD1 ASN     7     -10.336  -7.845   0.157  1.00  0.00    -0.269 OA
ENDBRANCH 104 105
ENDBRANCH  61 104
ENDBRANCH  59  61
ENDBRANCH   1  58
TORSDOF 42
ENDMDL
MODEL 4
REMARK VINA RESULT:      -4.5     17.131     23.848
REMARK WARNING: 32 MAX_TORS EXCEEDED!!!
REMARK  42 active torsions:
REMARK  status: ('A' for Active; 'I' for Inactive)
REMARK    1  A    between atoms: CA_2  and  CB_3 
REMARK    2  A    between atoms: CA_2  and  C_11 
REMARK    3  A    between atoms: CB_3  and  CG_4 
REMARK       I    between atoms: C_11  and  N_13 
REMARK    4  A    between atoms: N_13  and  CA_14 
REMARK    5  A    between atoms: CA_14  and  CB_15 
REMARK    6  A    between atoms: CA_14  and  C_19 
REMARK    7  A    between atoms: CB_15  and  CG_16 
REMARK       I    between atoms: C_19  and  N_21 
REMARK    8  A    between atoms: CA_22  and  C_26 
REMARK       I    between atoms: C_26  and  N_28 
REMARK    9  A    between atoms: N_28  and  CA_29 
REMARK   10  A    between atoms: CA_29  and  C_35 
REMARK   11  A    between atoms: CA_29  and  CB_30 
REMARK   12  A    between atoms: CB_30  and  CG_31 
REMARK   13  A    between atoms: CG_31  and  CD_32 
REMARK       I    between atoms: C_35  and  N_37 
REMARK   14  A    between atoms: N_37  and  CA_38 
REMARK   15  A    between atoms: CA_38  and  CB_39 
REMARK   16  A    between atoms: CA_38  and  C_47 
REMARK   17  A    between atoms: CB_39  and  CG_40 
REMARK       I    between atoms: C_47  and  N_49 
REMARK   18  A    between atoms: N_49  and  CA_50 
REMARK   19  A    between atoms: CA_50  and  CB_51 
REMARK   20  A    between atoms: CA_50  and  C_58 
REMARK   21  A    between atoms: CB_51  and  CG_52 
REMARK   22  A    between atoms: CG_52  and  CD_53 
REMARK   23  A    between atoms: CD_53  and  NE_54 
REMARK       I    between atoms: C_58  and  N_60 
REMARK   24  A    between atoms: N_60  and  CA_61 
REMARK   25  A    between atoms: CA_61  and  C_66 
REMARK   26  A    between atoms: CA_61  and  CB_62 
REMARK   27  A    between atoms: CB_62  and  CG_63 
REMARK       I    between atoms: C_66  and  N_68 
REMARK   28  A    between atoms: N_68  and  CA_69 
REMARK   29  A    between atoms: CA_69  and  CB_70 
REMARK   30  A    between atoms: CA_69  and  C_77 
REMARK   31  A    between atoms: CB_70  and  CG_71 
REMARK       I    between atoms: C_77  and  N_79 
REMARK   32  A    between atoms: N_79  and  CA_80 
REMARK   33  A    between atoms: CA_80  and  CB_81 
REMARK   34  A    between atoms: CA_80  and  C_91 
REMARK   35  A    between atoms: CB_81  and  CG_82 
REMARK       I    between atoms: C_91  and  N_93 
REMARK   36  A    between atoms: N_93  and  CA_94 
REMARK   37  A    between atoms: CA_94  and  C_95 
REMARK       I    between atoms: C_95  and  N_97 
REMARK   38  A    between atoms: N_97  and  CA_98 
REMARK   39  A    between atoms: CA_98  and  C_101 
REMARK   40  A    between atoms: CA_98  and  CB_99 
REMARK       I    between atoms: C_101  and  N_103 
REMARK   41  A    between atoms: N_103  and  CA_104 
REMARK   42  A    between atoms: CA_104  and  C_105 
ROOT
ATOM      1  CA  ARG     6      -6.895 -22.037  -0.767  1.00  0.00     0.186 C 
ENDROOT
BRANCH   1   2
ATOM      2  N   ARG     6      -6.466 -23.082   0.192  1.00  0.00    -0.229 NA
ATOM      3  C   TYR     5      -6.419 -22.867   1.514  1.00  0.00     0.275 C 
ATOM      4  O   TYR     5      -6.757 -21.797   2.020  1.00  0.00    -0.268 OA
BRANCH   3   5
ATOM      5  CA  TYR     5      -6.028 -24.059   2.403  1.00  0.00     0.191 C 
BRANCH   5   6
ATOM      6  N   TYR     5      -7.194 -24.780   2.975  1.00  0.00    -0.228 NA
ATOM      7  C   GLU     4      -8.126 -25.384   2.220  1.00  0.00     0.274 C 
ATOM      8  O   GLU     4      -8.014 -25.508   1.007  1.00  0.00    -0.268 OA
BRANCH   7   9
ATOM      9  CA  GLU     4      -9.188 -26.203   2.981  1.00  0.00     0.187 C 
BRANCH   9  10
ATOM     10  CB  GLU     4      -8.550 -27.479   3.555  1.00  0.00     0.045 C 
BRANCH  10  11
ATOM     11  CG  GLU     4      -8.608 -28.735   2.658  1.00  0.00     0.100 C 
BRANCH  11  12
ATOM     12  CD  GLU     4      -7.310 -29.035   1.910  1.00  0.00     0.185 C 
ATOM     13  OE1 GLU     4      -7.180 -30.185   1.415  1.00  0.00    -0.647 OA
ATOM     14  OE2 GLU     4      -6.313 -28.353   2.222  1.00  0.00    -0.647 OA
ENDBRANCH  11  12
ENDBRANCH  10  11
ENDBRANCH   9  10
BRANCH   9  15
ATOM     15  N   GLU     4     -10.338 -26.589   2.141  1.00  0.00    -0.229 NA
ATOM     16  C   PRO     3     -11.630 -26.527   2.441  1.00  0.00     0.272 C 
ATOM     17  O   PRO     3     -12.086 -25.794   3.321  1.00  0.00    -0.269 OA
BRANCH  16  18
ATOM     18  CA  PRO     3     -12.580 -27.009   1.343  1.00  0.00     0.165 C 
ATOM     19  N   PRO     3     -12.527 -26.228   0.089  1.00  0.00    -0.312 N 
ATOM     20  CD  PRO     3     -12.612 -27.147  -1.075  1.00  0.00     0.105 C 
ATOM     21  C   ASP     2     -12.558 -24.884   0.038  1.00  0.00     0.257 C 
ATOM     22  CG  PRO     3     -12.941 -28.514  -0.456  1.00  0.00     0.027 C 
ATOM     23  CB  PRO     3     -12.299 -28.451   0.927  1.00  0.00     0.034 C 
ATOM     24  O   ASP     2     -12.850 -24.226   1.048  1.00  0.00    -0.270 OA
BRANCH  21  25
ATOM     25  CA  ASP     2     -12.584 -24.175  -1.335  1.00  0.00     0.195 C 
BRANCH  25  26
ATOM     26  CB  ASP     2     -11.208 -23.904  -1.997  1.00  0.00     0.132 C 
BRANCH  26  27
ATOM     27  CG  ASP     2     -11.254 -24.260  -3.495  1.00  0.00     0.188 C 
ATOM     28  OD2 ASP     2     -11.016 -25.463  -3.773  1.00  0.00    -0.647 OA
ATOM     29  OD1 ASP     2     -10.945 -23.348  -4.301  1.00  0.00    -0.647 OA
ENDBRANCH  26  27
ENDBRANCH  25  26
BRANCH  25  30
ATOM     30  N   ASP     2     -13.167 -22.825  -1.249  1.00  0.00    -0.228 NA
ATOM     31  C   TYR     1     -14.113 -22.329  -2.012  1.00  0.00     0.289 C 
ATOM     32  O   TYR     1     -14.797 -22.918  -2.855  1.00  0.00    -0.268 OA
BRANCH  31  33
ATOM     33  CA  TYR     1     -14.310 -20.834  -1.779  1.00  0.00     0.385 C 
ATOM     34  N   TYR     1     -13.479 -20.444  -0.627  1.00  0.00     0.626 N 
BRANCH  33  35
ATOM     35  CB  TYR     1     -13.904 -20.115  -3.063  1.00  0.00     0.075 C 
BRANCH  35  36
ATOM     36  CG  TYR     1     -15.088 -19.443  -3.776  1.00  0.00    -0.019 A 
ATOM     37  CD2 TYR     1     -15.648 -18.270  -3.296  1.00  0.00    -0.002 A 
ATOM     38  CE2 TYR     1     -16.624 -17.612  -4.030  1.00  0.00     0.027 A 
ATOM     39  CZ  TYR     1     -17.036 -18.149  -5.249  1.00  0.00     0.131 A 
ATOM     40  CE1 TYR     1     -16.502 -19.343  -5.701  1.00  0.00     0.027 A 
ATOM     41  OH  TYR     1     -17.840 -17.440  -6.066  1.00  0.00    -0.190 OA
ATOM     42  CD1 TYR     1     -15.526 -20.000  -4.968  1.00  0.00    -0.002 A 
ENDBRANCH  35  36
ENDBRANCH  33  35
ENDBRANCH  31  33
ENDBRANCH  25  30
ENDBRANCH  21  25
ENDBRANCH  16  18
ENDBRANCH   9  15
ENDBRANCH   7   9
ENDBRANCH   5   6
BRANCH   5  43
ATOM     43  CB  TYR     5      -5.123 -25.041   1.640  1.00  0.00     0.060 C 
BRANCH  43  44
ATOM     44  CG  TYR     5      -3.631 -24.805   1.929  1.00  0.00    -0.020 A 
ATOM     45  CD2 TYR     5      -3.019 -25.406   3.022  1.00  0.00    -0.002 A 
ATOM     46  CE2 TYR     5      -1.667 -25.193   3.271  1.00  0.00     0.027 A 
ATOM     47  CZ  TYR     5      -0.927 -24.379   2.429  1.00  0.00     0.131 A 
ATOM     48  CE1 TYR     5      -1.527 -23.787   1.323  1.00  0.00     0.027 A 
ATOM     49  OH  TYR     5       0.347 -24.055   2.741  1.00  0.00    -0.190 OA
ATOM     50  CD1 TYR     5      -2.885 -23.995   1.080  1.00  0.00    -0.002 A 
ENDBRANCH  43  44
ENDBRANCH   5  43
ENDBRANCH   3   5
ENDBRANCH   1   2
BRANCH   1  51
ATOM     51  CB  ARG     6      -6.774 -22.481  -2.221  1.00  0.00     0.036 C 
BRANCH  51  52
ATOM     52  CG  ARG     6      -6.408 -23.959  -2.384  1.00  0.00     0.029 C 
BRANCH  52  53
ATOM     53  CD  ARG     6      -7.654 -24.785  -2.688  1.00  0.00     0.145 C 
BRANCH  53  54
ATOM     54  NE  ARG     6      -7.356 -25.855  -3.655  1.00  0.00    -0.083 NA
ATOM     55  CZ  ARG     6      -7.486 -25.759  -4.991  1.00  0.00     0.782 C 
ATOM     56  NH2 ARG     6      -7.268 -26.820  -5.772  1.00  0.00     0.063 N 
ATOM     57  NH1 ARG     6      -7.919 -24.631  -5.544  1.00  0.00     0.063 N 
ENDBRANCH  53  54
ENDBRANCH  52  53
ENDBRANCH  51  52
ENDBRANCH   1  51
BRANCH   1  58
ATOM     58  C   ARG     6      -8.354 -21.612  -0.558  1.00  0.00     0.274 C 
ATOM     59  N   ASN     7      -8.617 -20.327  -0.778  1.00  0.00    -0.228 NA
ATOM     60  O   ARG     6      -9.181 -22.453  -0.203  1.00  0.00    -0.268 OA
BRANCH  59  61
ATOM     61  CA  ASN     7      -9.978 -19.753  -0.724  1.00  0.00     0.196 C 
BRANCH  61  62
ATOM     62  C   ASN     7     -10.360 -19.072  -2.052  1.00  0.00     0.275 C 
ATOM     63  N   PHE     8     -10.162 -17.748  -2.135  1.00  0.00    -0.228 NA
ATOM     64  O   ASN     7     -10.439 -19.782  -3.036  1.00  0.00    -0.268 OA
BRANCH  63  65
ATOM     65  CA  PHE     8     -10.386 -16.931  -3.353  1.00  0.00     0.191 C 
BRANCH  65  66
ATOM     66  CB  PHE     8     -11.881 -16.596  -3.439  1.00  0.00     0.060 C 
BRANCH  66  67
ATOM     67  CG  PHE     8     -12.512 -16.849  -4.821  1.00  0.00    -0.020 A 
ATOM     68  CD1 PHE     8     -13.494 -15.993  -5.301  1.00  0.00    -0.004 A 
ATOM     69  CE1 PHE     8     -14.136 -16.279  -6.506  1.00  0.00    -0.000 A 
ATOM     70  CZ  PHE     8     -13.779 -17.409  -7.224  1.00  0.00    -0.000 A 
ATOM     71  CE2 PHE     8     -12.786 -18.261  -6.751  1.00  0.00    -0.000 A 
ATOM     72  CD2 PHE     8     -12.144 -17.974  -5.547  1.00  0.00    -0.004 A 
ENDBRANCH  66  67
ENDBRANCH  65  66
BRANCH  65  73
ATOM     73  C   PHE     8      -9.509 -15.663  -3.459  1.00  0.00     0.275 C 
ATOM     74  N   TRP     9     -10.113 -14.560  -3.903  1.00  0.00    -0.228 NA
ATOM     75  O   PHE     8      -8.280 -15.734  -3.383  1.00  0.00    -0.268 OA
BRANCH  74  76
ATOM     76  CA  TRP     9      -9.426 -13.245  -3.938  1.00  0.00     0.191 C 
BRANCH  76  77
ATOM     77  CB  TRP     9      -9.230 -12.826  -5.404  1.00  0.00     0.062 C 
BRANCH  77  78
ATOM     78  CG  TRP     9      -7.761 -12.650  -5.789  1.00  0.00     0.001 A 
ATOM     79  CD1 TRP     9      -7.118 -11.492  -5.906  1.00  0.00     0.095 A 
ATOM     80  NE1 TRP     9      -5.963 -11.682  -6.532  1.00  0.00    -0.244 NA
ATOM     81  CE2 TRP     9      -5.820 -12.968  -6.817  1.00  0.00     0.081 A 
ATOM     82  CD2 TRP     9      -6.956 -13.625  -6.370  1.00  0.00     0.015 A 
ATOM     83  CZ2 TRP     9      -4.854 -13.678  -7.530  1.00  0.00     0.019 A 
ATOM     84  CE3 TRP     9      -7.150 -14.972  -6.638  1.00  0.00     0.001 A 
ATOM     85  CZ3 TRP     9      -6.194 -15.678  -7.360  1.00  0.00     0.000 A 
ATOM     86  CH2 TRP     9      -5.038 -15.028  -7.787  1.00  0.00     0.002 A 
ENDBRANCH  77  78
ENDBRANCH  76  77
BRANCH  76  87
ATOM     87  C   TRP     9     -10.121 -12.136  -3.116  1.00  0.00     0.275 C 
ATOM     88  O   TRP     9     -10.914 -11.363  -3.646  1.00  0.00    -0.268 OA
ATOM     89  N   GLY    10      -9.885 -12.139  -1.805  1.00  0.00    -0.226 NA
BRANCH  89  90
ATOM     90  CA  GLY    10     -10.494 -11.182  -0.841  1.00  0.00     0.218 C 
BRANCH  90  91
ATOM     91  C   GLY    10     -11.730 -11.679  -0.074  1.00  0.00     0.277 C 
ATOM     92  N   CYS    11     -12.010 -12.972  -0.235  1.00  0.00    -0.228 NA
ATOM     93  O   GLY    10     -12.476 -10.885   0.488  1.00  0.00    -0.268 OA
BRANCH  92  94
ATOM     94  CA  CYS    11     -13.121 -13.718   0.398  1.00  0.00     0.198 C 
BRANCH  94  95
ATOM     95  C   CYS    11     -12.650 -14.187   1.789  1.00  0.00     0.275 C 
ATOM     96  O   CYS    11     -13.165 -13.698   2.788  1.00  0.00    -0.268 OA
ATOM     97  N   GLY    12     -11.570 -14.954   1.810  1.00  0.00    -0.225 NA
BRANCH  97  98
ATOM     98  CA  GLY    12     -10.979 -15.474   3.053  1.00  0.00     0.226 C 
BRANCH  98  99
ATOM     99  C   GLY    12      -9.541 -14.919   3.168  1.00  0.00     0.211 C 
ATOM    100  O1  GLY    12      -9.397 -13.682   2.990  1.00  0.00    -0.646 OA
ATOM    101  O2  GLY    12      -8.632 -15.718   3.461  1.00  0.00    -0.646 OA
ENDBRANCH  98  99
ENDBRANCH  97  98
ENDBRANCH  94  95
BRANCH  94 102
ATOM    102  CB  CYS    11     -13.413 -14.994  -0.389  1.00  0.00     0.103 C 
ATOM    103  SG  CYS    11     -14.884 -14.949  -1.483  1.00  0.00    -0.080 SA
ENDBRANCH  94 102
ENDBRANCH  92  94
ENDBRANCH  90  91
ENDBRANCH  89  90
ENDBRANCH  76  87
ENDBRANCH  74  76
ENDBRANCH  65  73
ENDBRANCH  63  65
ENDBRANCH  61  62
BRANCH  61 104
ATOM    104  CB  ASN     7     -10.123 -18.777   0.451  1.00  0.00     0.126 C 
BRANCH 104 105
ATOM    105  CG  ASN     7     -10.497 -19.432   1.794  1.00  0.00     0.276 C 
ATOM    106  ND2 ASN     7      -9.942 -18.910   2.864  1.00  0.00    -0.107 N 
ATOM    107  OD1 ASN     7     -11.132 -20.472   1.916  1.00  0.00    -0.269 OA
ENDBRANCH 104 105
ENDBRANCH  61 104
ENDBRANCH  59  61
ENDBRANCH   1  58
TORSDOF 42
ENDMDL
MODEL 5
REMARK VINA RESULT:      -4.5     34.729     40.688
REMARK WARNING: 32 MAX_TORS EXCEEDED!!!
REMARK  42 active torsions:
REMARK  status: ('A' for Active; 'I' for Inactive)
REMARK    1  A    between atoms: CA_2  and  CB_3 
REMARK    2  A    between atoms: CA_2  and  C_11 
REMARK    3  A    between atoms: CB_3  and  CG_4 
REMARK       I    between atoms: C_11  and  N_13 
REMARK    4  A    between atoms: N_13  and  CA_14 
REMARK    5  A    between atoms: CA_14  and  CB_15 
REMARK    6  A    between atoms: CA_14  and  C_19 
REMARK    7  A    between atoms: CB_15  and  CG_16 
REMARK       I    between atoms: C_19  and  N_21 
REMARK    8  A    between atoms: CA_22  and  C_26 
REMARK       I    between atoms: C_26  and  N_28 
REMARK    9  A    between atoms: N_28  and  CA_29 
REMARK   10  A    between atoms: CA_29  and  C_35 
REMARK   11  A    between atoms: CA_29  and  CB_30 
REMARK   12  A    between atoms: CB_30  and  CG_31 
REMARK   13  A    between atoms: CG_31  and  CD_32 
REMARK       I    between atoms: C_35  and  N_37 
REMARK   14  A    between atoms: N_37  and  CA_38 
REMARK   15  A    between atoms: CA_38  and  CB_39 
REMARK   16  A    between atoms: CA_38  and  C_47 
REMARK   17  A    between atoms: CB_39  and  CG_40 
REMARK       I    between atoms: C_47  and  N_49 
REMARK   18  A    between atoms: N_49  and  CA_50 
REMARK   19  A    between atoms: CA_50  and  CB_51 
REMARK   20  A    between atoms: CA_50  and  C_58 
REMARK   21  A    between atoms: CB_51  and  CG_52 
REMARK   22  A    between atoms: CG_52  and  CD_53 
REMARK   23  A    between atoms: CD_53  and  NE_54 
REMARK       I    between atoms: C_58  and  N_60 
REMARK   24  A    between atoms: N_60  and  CA_61 
REMARK   25  A    between atoms: CA_61  and  C_66 
REMARK   26  A    between atoms: CA_61  and  CB_62 
REMARK   27  A    between atoms: CB_62  and  CG_63 
REMARK       I    between atoms: C_66  and  N_68 
REMARK   28  A    between atoms: N_68  and  CA_69 
REMARK   29  A    between atoms: CA_69  and  CB_70 
REMARK   30  A    between atoms: CA_69  and  C_77 
REMARK   31  A    between atoms: CB_70  and  CG_71 
REMARK       I    between atoms: C_77  and  N_79 
REMARK   32  A    between atoms: N_79  and  CA_80 
REMARK   33  A    between atoms: CA_80  and  CB_81 
REMARK   34  A    between atoms: CA_80  and  C_91 
REMARK   35  A    between atoms: CB_81  and  CG_82 
REMARK       I    between atoms: C_91  and  N_93 
REMARK   36  A    between atoms: N_93  and  CA_94 
REMARK   37  A    between atoms: CA_94  and  C_95 
REMARK       I    between atoms: C_95  and  N_97 
REMARK   38  A    between atoms: N_97  and  CA_98 
REMARK   39  A    between atoms: CA_98  and  C_101 
REMARK   40  A    between atoms: CA_98  and  CB_99 
REMARK       I    between atoms: C_101  and  N_103 
REMARK   41  A    between atoms: N_103  and  CA_104 
REMARK   42  A    between atoms: CA_104  and  C_105 
ROOT
ATOM      1  CA  ARG     6     -11.827   5.065  -0.193  1.00  0.00     0.186 C 
ENDROOT
BRANCH   1   2
ATOM      2  N   ARG     6     -13.057   4.461   0.370  1.00  0.00    -0.229 NA
ATOM      3  C   TYR     5     -13.230   4.281   1.686  1.00  0.00     0.275 C 
ATOM      4  O   TYR     5     -12.391   4.633   2.516  1.00  0.00    -0.268 OA
BRANCH   3   5
ATOM      5  CA  TYR     5     -14.583   3.713   2.144  1.00  0.00     0.191 C 
BRANCH   5   6
ATOM      6  N   TYR     5     -15.611   3.693   1.071  1.00  0.00    -0.228 NA
ATOM      7  C   GLU     4     -16.502   4.681   0.890  1.00  0.00     0.274 C 
ATOM      8  O   GLU     4     -16.449   5.739   1.504  1.00  0.00    -0.268 OA
BRANCH   7   9
ATOM      9  CA  GLU     4     -17.402   4.562  -0.357  1.00  0.00     0.187 C 
BRANCH   9  10
ATOM     10  CB  GLU     4     -16.981   3.339  -1.189  1.00  0.00     0.045 C 
BRANCH  10  11
ATOM     11  CG  GLU     4     -15.617   3.438  -1.906  1.00  0.00     0.100 C 
BRANCH  11  12
ATOM     12  CD  GLU     4     -15.325   2.285  -2.866  1.00  0.00     0.185 C 
ATOM     13  OE1 GLU     4     -15.073   2.579  -4.063  1.00  0.00    -0.647 OA
ATOM     14  OE2 GLU     4     -15.798   1.171  -2.563  1.00  0.00    -0.647 OA
ENDBRANCH  11  12
ENDBRANCH  10  11
ENDBRANCH   9  10
BRANCH   9  15
ATOM     15  N   GLU     4     -17.361   5.757  -1.222  1.00  0.00    -0.229 NA
ATOM     16  C   PRO     3     -18.100   6.019  -2.293  1.00  0.00     0.272 C 
ATOM     17  O   PRO     3     -19.185   5.479  -2.516  1.00  0.00    -0.269 OA
BRANCH  16  18
ATOM     18  CA  PRO     3     -17.808   7.357  -2.976  1.00  0.00     0.165 C 
ATOM     19  N   PRO     3     -17.397   7.256  -4.393  1.00  0.00    -0.312 N 
ATOM     20  CD  PRO     3     -18.038   8.342  -5.177  1.00  0.00     0.105 C 
ATOM     21  C   ASP     2     -16.462   6.400  -4.844  1.00  0.00     0.257 C 
ATOM     22  CG  PRO     3     -18.689   9.243  -4.117  1.00  0.00     0.027 C 
ATOM     23  CB  PRO     3     -19.024   8.282  -2.979  1.00  0.00     0.034 C 
ATOM     24  O   ASP     2     -15.735   5.789  -4.047  1.00  0.00    -0.270 OA
BRANCH  21  25
ATOM     25  CA  ASP     2     -16.050   6.441  -6.333  1.00  0.00     0.195 C 
BRANCH  25  26
ATOM     26  CB  ASP     2     -16.183   5.112  -7.121  1.00  0.00     0.132 C 
BRANCH  26  27
ATOM     27  CG  ASP     2     -17.420   5.153  -8.038  1.00  0.00     0.188 C 
ATOM     28  OD2 ASP     2     -18.072   6.227  -8.020  1.00  0.00    -0.647 OA
ATOM     29  OD1 ASP     2     -18.000   4.059  -8.251  1.00  0.00    -0.647 OA
ENDBRANCH  26  27
ENDBRANCH  25  26
BRANCH  25  30
ATOM     30  N   ASP     2     -14.625   6.771  -6.504  1.00  0.00    -0.228 NA
ATOM     31  C   TYR     1     -14.093   7.971  -6.517  1.00  0.00     0.289 C 
ATOM     32  O   TYR     1     -14.640   9.048  -6.257  1.00  0.00    -0.268 OA
BRANCH  31  33
ATOM     33  CA  TYR     1     -12.626   7.942  -6.934  1.00  0.00     0.385 C 
ATOM     34  N   TYR     1     -12.464   8.852  -8.079  1.00  0.00     0.626 N 
BRANCH  33  35
ATOM     35  CB  TYR     1     -11.800   8.373  -5.724  1.00  0.00     0.075 C 
BRANCH  35  36
ATOM     36  CG  TYR     1     -11.050   7.207  -5.062  1.00  0.00    -0.019 A 
ATOM     37  CD2 TYR     1     -11.234   5.898  -5.481  1.00  0.00    -0.002 A 
ATOM     38  CE2 TYR     1     -10.447   4.882  -4.961  1.00  0.00     0.027 A 
ATOM     39  CZ  TYR     1      -9.476   5.193  -4.010  1.00  0.00     0.131 A 
ATOM     40  CE1 TYR     1      -9.326   6.494  -3.566  1.00  0.00     0.027 A 
ATOM     41  OH  TYR     1      -8.577   4.263  -3.629  1.00  0.00    -0.190 OA
ATOM     42  CD1 TYR     1     -10.113   7.511  -4.086  1.00  0.00    -0.002 A 
ENDBRANCH  35  36
ENDBRANCH  33  35
ENDBRANCH  31  33
ENDBRANCH  25  30
ENDBRANCH  21  25
ENDBRANCH  16  18
ENDBRANCH   9  15
ENDBRANCH   7   9
ENDBRANCH   5   6
BRANCH   5  43
ATOM     43  CB  TYR     5     -14.415   2.304   2.739  1.00  0.00     0.060 C 
BRANCH  43  44
ATOM     44  CG  TYR     5     -13.614   1.372   1.814  1.00  0.00    -0.020 A 
ATOM     45  CD2 TYR     5     -12.278   1.094   2.075  1.00  0.00    -0.002 A 
ATOM     46  CE2 TYR     5     -11.564   0.244   1.236  1.00  0.00     0.027 A 
ATOM     47  CZ  TYR     5     -12.186  -0.329   0.137  1.00  0.00     0.131 A 
ATOM     48  CE1 TYR     5     -13.527  -0.070  -0.121  1.00  0.00     0.027 A 
ATOM     49  OH  TYR     5     -11.466  -1.042  -0.757  1.00  0.00    -0.190 OA
ATOM     50  CD1 TYR     5     -14.238   0.790   0.716  1.00  0.00    -0.002 A 
ENDBRANCH  43  44
ENDBRANCH   5  43
ENDBRANCH   3   5
ENDBRANCH   1   2
BRANCH   1  51
ATOM     51  CB  ARG     6     -11.080   4.123  -1.133  1.00  0.00     0.036 C 
BRANCH  51  52
ATOM     52  CG  ARG     6     -11.913   2.922  -1.589  1.00  0.00     0.029 C 
BRANCH  52  53
ATOM     53  CD  ARG     6     -11.118   2.068  -2.572  1.00  0.00     0.145 C 
BRANCH  53  54
ATOM     54  NE  ARG     6     -12.002   1.145  -3.304  1.00  0.00    -0.083 NA
ATOM     55  CZ  ARG     6     -11.861   0.787  -4.594  1.00  0.00     0.782 C 
ATOM     56  NH2 ARG     6     -12.770   0.007  -5.185  1.00  0.00     0.063 N 
ATOM     57  NH1 ARG     6     -10.862   1.275  -5.321  1.00  0.00     0.063 N 
ENDBRANCH  53  54
ENDBRANCH  52  53
ENDBRANCH  51  52
ENDBRANCH   1  51
BRANCH   1  58
ATOM     58  C   ARG     6     -12.113   6.344  -0.990  1.00  0.00     0.274 C 
ATOM     59  N   ASN     7     -11.684   7.476  -0.438  1.00  0.00    -0.228 NA
ATOM     60  O   ARG     6     -12.710   6.262  -2.064  1.00  0.00    -0.268 OA
BRANCH  59  61
ATOM     61  CA  ASN     7     -11.780   8.793  -1.100  1.00  0.00     0.196 C 
BRANCH  61  62
ATOM     62  C   ASN     7     -10.510   9.635  -0.875  1.00  0.00     0.275 C 
ATOM     63  N   PHE     8      -9.887  10.099  -1.968  1.00  0.00    -0.228 NA
ATOM     64  O   ASN     7     -10.370  10.144   0.220  1.00  0.00    -0.268 OA
BRANCH  63  65
ATOM     65  CA  PHE     8      -8.704  10.995  -1.955  1.00  0.00     0.191 C 
BRANCH  65  66
ATOM     66  CB  PHE     8      -7.484  10.174  -1.514  1.00  0.00     0.060 C 
BRANCH  66  67
ATOM     67  CG  PHE     8      -6.818  10.672  -0.218  1.00  0.00    -0.020 A 
ATOM     68  CD1 PHE     8      -6.629  12.032  -0.014  1.00  0.00    -0.004 A 
ATOM     69  CE1 PHE     8      -5.935  12.476   1.111  1.00  0.00    -0.000 A 
ATOM     70  CZ  PHE     8      -5.450  11.556   2.027  1.00  0.00    -0.000 A 
ATOM     71  CE2 PHE     8      -5.650  10.193   1.832  1.00  0.00    -0.000 A 
ATOM     72  CD2 PHE     8      -6.344   9.750   0.706  1.00  0.00    -0.004 A 
ENDBRANCH  66  67
ENDBRANCH  65  66
BRANCH  65  73
ATOM     73  C   PHE     8      -8.439  11.745  -3.280  1.00  0.00     0.275 C 
ATOM     74  N   TRP     9      -8.801  11.118  -4.400  1.00  0.00    -0.228 NA
ATOM     75  O   PHE     8      -7.711  12.740  -3.310  1.00  0.00    -0.268 OA
BRANCH  74  76
ATOM     76  CA  TRP     9      -8.719  11.770  -5.730  1.00  0.00     0.191 C 
BRANCH  76  77
ATOM     77  CB  TRP     9      -7.615  11.084  -6.552  1.00  0.00     0.062 C 
BRANCH  77  78
ATOM     78  CG  TRP     9      -7.405   9.619  -6.173  1.00  0.00     0.001 A 
ATOM     79  CD1 TRP     9      -6.464   9.150  -5.359  1.00  0.00     0.095 A 
ATOM     80  NE1 TRP     9      -6.381   7.831  -5.482  1.00  0.00    -0.244 NA
ATOM     81  CE2 TRP     9      -7.278   7.411  -6.362  1.00  0.00     0.081 A 
ATOM     82  CD2 TRP     9      -7.948   8.526  -6.841  1.00  0.00     0.015 A 
ATOM     83  CZ2 TRP     9      -7.547   6.160  -6.916  1.00  0.00     0.019 A 
ATOM     84  CE3 TRP     9      -8.869   8.413  -7.872  1.00  0.00     0.001 A 
ATOM     85  CZ3 TRP     9      -9.129   7.167  -8.434  1.00  0.00     0.000 A 
ATOM     86  CH2 TRP     9      -8.477   6.040  -7.938  1.00  0.00     0.002 A 
ENDBRANCH  77  78
ENDBRANCH  76  77
BRANCH  76  87
ATOM     87  C   TRP     9     -10.056  11.822  -6.504  1.00  0.00     0.275 C 
ATOM     88  O   TRP     9     -10.088  11.654  -7.719  1.00  0.00    -0.268 OA
ATOM     89  N   GLY    10     -11.157  11.956  -5.766  1.00  0.00    -0.226 NA
BRANCH  89  90
ATOM     90  CA  GLY    10     -12.539  11.982  -6.319  1.00  0.00     0.218 C 
BRANCH  90  91
ATOM     91  C   GLY    10     -13.360  13.252  -6.042  1.00  0.00     0.277 C 
ATOM     92  N   CYS    11     -13.809  13.371  -4.794  1.00  0.00    -0.228 NA
ATOM     93  O   GLY    10     -13.704  13.985  -6.962  1.00  0.00    -0.268 OA
BRANCH  92  94
ATOM     94  CA  CYS    11     -14.601  14.495  -4.245  1.00  0.00     0.198 C 
BRANCH  94  95
ATOM     95  C   CYS    11     -14.386  14.532  -2.719  1.00  0.00     0.275 C 
ATOM     96  O   CYS    11     -14.321  15.617  -2.153  1.00  0.00    -0.268 OA
ATOM     97  N   GLY    12     -14.085  13.376  -2.146  1.00  0.00    -0.225 NA
BRANCH  97  98
ATOM     98  CA  GLY    12     -13.833  13.238  -0.703  1.00  0.00     0.226 C 
BRANCH  98  99
ATOM     99  C   GLY    12     -12.306  13.114  -0.495  1.00  0.00     0.211 C 
ATOM    100  O1  GLY    12     -11.604  12.991  -1.530  1.00  0.00    -0.646 OA
ATOM    101  O2  GLY    12     -11.872  13.179   0.670  1.00  0.00    -0.646 OA
ENDBRANCH  98  99
ENDBRANCH  97  98
ENDBRANCH  94  95
BRANCH  94 102
ATOM    102  CB  CYS    11     -16.092  14.234  -4.444  1.00  0.00     0.103 C 
ATOM    103  SG  CYS    11     -17.152  15.717  -4.648  1.00  0.00    -0.080 SA
ENDBRANCH  94 102
ENDBRANCH  92  94
ENDBRANCH  90  91
ENDBRANCH  89  90
ENDBRANCH  76  87
ENDBRANCH  74  76
ENDBRANCH  65  73
ENDBRANCH  63  65
ENDBRANCH  61  62
BRANCH  61 104
ATOM    104  CB  ASN     7     -13.029   9.556  -0.642  1.00  0.00     0.126 C 
BRANCH 104 105
ATOM    105  CG  ASN     7     -14.227   9.476  -1.606  1.00  0.00     0.276 C 
ATOM    106  ND2 ASN     7     -14.016   9.916  -2.826  1.00  0.00    -0.107 N 
ATOM    107  OD1 ASN     7     -15.372   9.187  -1.283  1.00  0.00    -0.269 OA
ENDBRANCH 104 105
ENDBRANCH  61 104
ENDBRANCH  59  61
ENDBRANCH   1  58
TORSDOF 42
ENDMDL
MODEL 6
REMARK VINA RESULT:      -4.3     24.340     30.395
REMARK WARNING: 32 MAX_TORS EXCEEDED!!!
REMARK  42 active torsions:
REMARK  status: ('A' for Active; 'I' for Inactive)
REMARK    1  A    between atoms: CA_2  and  CB_3 
REMARK    2  A    between atoms: CA_2  and  C_11 
REMARK    3  A    between atoms: CB_3  and  CG_4 
REMARK       I    between atoms: C_11  and  N_13 
REMARK    4  A    between atoms: N_13  and  CA_14 
REMARK    5  A    between atoms: CA_14  and  CB_15 
REMARK    6  A    between atoms: CA_14  and  C_19 
REMARK    7  A    between atoms: CB_15  and  CG_16 
REMARK       I    between atoms: C_19  and  N_21 
REMARK    8  A    between atoms: CA_22  and  C_26 
REMARK       I    between atoms: C_26  and  N_28 
REMARK    9  A    between atoms: N_28  and  CA_29 
REMARK   10  A    between atoms: CA_29  and  C_35 
REMARK   11  A    between atoms: CA_29  and  CB_30 
REMARK   12  A    between atoms: CB_30  and  CG_31 
REMARK   13  A    between atoms: CG_31  and  CD_32 
REMARK       I    between atoms: C_35  and  N_37 
REMARK   14  A    between atoms: N_37  and  CA_38 
REMARK   15  A    between atoms: CA_38  and  CB_39 
REMARK   16  A    between atoms: CA_38  and  C_47 
REMARK   17  A    between atoms: CB_39  and  CG_40 
REMARK       I    between atoms: C_47  and  N_49 
REMARK   18  A    between atoms: N_49  and  CA_50 
REMARK   19  A    between atoms: CA_50  and  CB_51 
REMARK   20  A    between atoms: CA_50  and  C_58 
REMARK   21  A    between atoms: CB_51  and  CG_52 
REMARK   22  A    between atoms: CG_52  and  CD_53 
REMARK   23  A    between atoms: CD_53  and  NE_54 
REMARK       I    between atoms: C_58  and  N_60 
REMARK   24  A    between atoms: N_60  and  CA_61 
REMARK   25  A    between atoms: CA_61  and  C_66 
REMARK   26  A    between atoms: CA_61  and  CB_62 
REMARK   27  A    between atoms: CB_62  and  CG_63 
REMARK       I    between atoms: C_66  and  N_68 
REMARK   28  A    between atoms: N_68  and  CA_69 
REMARK   29  A    between atoms: CA_69  and  CB_70 
REMARK   30  A    between atoms: CA_69  and  C_77 
REMARK   31  A    between atoms: CB_70  and  CG_71 
REMARK       I    between atoms: C_77  and  N_79 
REMARK   32  A    between atoms: N_79  and  CA_80 
REMARK   33  A    between atoms: CA_80  and  CB_81 
REMARK   34  A    between atoms: CA_80  and  C_91 
REMARK   35  A    between atoms: CB_81  and  CG_82 
REMARK       I    between atoms: C_91  and  N_93 
REMARK   36  A    between atoms: N_93  and  CA_94 
REMARK   37  A    between atoms: CA_94  and  C_95 
REMARK       I    between atoms: C_95  and  N_97 
REMARK   38  A    between atoms: N_97  and  CA_98 
REMARK   39  A    between atoms: CA_98  and  C_101 
REMARK   40  A    between atoms: CA_98  and  CB_99 
REMARK       I    between atoms: C_101  and  N_103 
REMARK   41  A    between atoms: N_103  and  CA_104 
REMARK   42  A    between atoms: CA_104  and  C_105 
ROOT
ATOM      1  CA  ARG     6     -13.138  -7.062   1.494  1.00  0.00     0.186 C 
ENDROOT
BRANCH   1   2
ATOM      2  N   ARG     6     -13.511  -6.123   0.410  1.00  0.00    -0.229 NA
ATOM      3  C   TYR     5     -12.597  -5.516  -0.359  1.00  0.00     0.275 C 
ATOM      4  O   TYR     5     -11.390  -5.720  -0.234  1.00  0.00    -0.268 OA
BRANCH   3   5
ATOM      5  CA  TYR     5     -13.121  -4.623  -1.496  1.00  0.00     0.191 C 
BRANCH   5   6
ATOM      6  N   TYR     5     -13.938  -5.357  -2.497  1.00  0.00    -0.228 NA
ATOM      7  C   GLU     4     -13.956  -5.041  -3.803  1.00  0.00     0.274 C 
ATOM      8  O   GLU     4     -13.196  -4.217  -4.294  1.00  0.00    -0.268 OA
BRANCH   7   9
ATOM      9  CA  GLU     4     -14.749  -5.996  -4.719  1.00  0.00     0.187 C 
BRANCH   9  10
ATOM     10  CB  GLU     4     -16.087  -6.363  -4.057  1.00  0.00     0.045 C 
BRANCH  10  11
ATOM     11  CG  GLU     4     -16.017  -7.368  -2.886  1.00  0.00     0.100 C 
BRANCH  11  12
ATOM     12  CD  GLU     4     -16.972  -7.059  -1.734  1.00  0.00     0.185 C 
ATOM     13  OE1 GLU     4     -16.964  -5.887  -1.275  1.00  0.00    -0.647 OA
ATOM     14  OE2 GLU     4     -17.329  -8.023  -1.028  1.00  0.00    -0.647 OA
ENDBRANCH  11  12
ENDBRANCH  10  11
ENDBRANCH   9  10
BRANCH   9  15
ATOM     15  N   GLU     4     -14.021  -7.241  -5.032  1.00  0.00    -0.229 NA
ATOM     16  C   PRO     3     -14.182  -8.044  -6.077  1.00  0.00     0.272 C 
ATOM     17  O   PRO     3     -14.702  -7.683  -7.134  1.00  0.00    -0.269 OA
BRANCH  16  18
ATOM     18  CA  PRO     3     -13.264  -9.267  -6.108  1.00  0.00     0.165 C 
ATOM     19  N   PRO     3     -13.950 -10.554  -6.355  1.00  0.00    -0.312 N 
ATOM     20  CD  PRO     3     -13.131 -11.389  -7.270  1.00  0.00     0.105 C 
ATOM     21  C   ASP     2     -15.065 -10.946  -5.711  1.00  0.00     0.257 C 
ATOM     22  CG  PRO     3     -11.803 -10.627  -7.392  1.00  0.00     0.027 C 
ATOM     23  CB  PRO     3     -12.202  -9.167  -7.201  1.00  0.00     0.034 C 
ATOM     24  O   ASP     2     -15.461 -10.329  -4.711  1.00  0.00    -0.270 OA
BRANCH  21  25
ATOM     25  CA  ASP     2     -15.648 -12.350  -5.988  1.00  0.00     0.195 C 
BRANCH  25  26
ATOM     26  CB  ASP     2     -17.185 -12.498  -5.846  1.00  0.00     0.132 C 
BRANCH  26  27
ATOM     27  CG  ASP     2     -17.903 -11.302  -6.498  1.00  0.00     0.188 C 
ATOM     28  OD2 ASP     2     -18.668 -10.651  -5.742  1.00  0.00    -0.647 OA
ATOM     29  OD1 ASP     2     -18.150 -11.393  -7.727  1.00  0.00    -0.647 OA
ENDBRANCH  26  27
ENDBRANCH  25  26
BRANCH  25  30
ATOM     30  N   ASP     2     -15.143 -13.356  -5.038  1.00  0.00    -0.228 NA
ATOM     31  C   TYR     1     -14.430 -14.420  -5.328  1.00  0.00     0.289 C 
ATOM     32  O   TYR     1     -13.926 -14.726  -6.413  1.00  0.00    -0.268 OA
BRANCH  31  33
ATOM     33  CA  TYR     1     -14.273 -15.347  -4.126  1.00  0.00     0.385 C 
ATOM     34  N   TYR     1     -15.614 -15.818  -3.742  1.00  0.00     0.626 N 
BRANCH  33  35
ATOM     35  CB  TYR     1     -13.352 -16.489  -4.549  1.00  0.00     0.075 C 
BRANCH  35  36
ATOM     36  CG  TYR     1     -12.377 -16.916  -3.441  1.00  0.00    -0.019 A 
ATOM     37  CD2 TYR     1     -11.541 -18.011  -3.597  1.00  0.00    -0.002 A 
ATOM     38  CE2 TYR     1     -10.577 -18.294  -2.641  1.00  0.00     0.027 A 
ATOM     39  CZ  TYR     1     -10.465 -17.468  -1.523  1.00  0.00     0.131 A 
ATOM     40  CE1 TYR     1     -11.329 -16.401  -1.354  1.00  0.00     0.027 A 
ATOM     41  OH  TYR     1      -9.423 -17.607  -0.679  1.00  0.00    -0.190 OA
ATOM     42  CD1 TYR     1     -12.293 -16.118  -2.310  1.00  0.00    -0.002 A 
ENDBRANCH  35  36
ENDBRANCH  33  35
ENDBRANCH  31  33
ENDBRANCH  25  30
ENDBRANCH  21  25
ENDBRANCH  16  18
ENDBRANCH   9  15
ENDBRANCH   7   9
ENDBRANCH   5   6
BRANCH   5  43
ATOM     43  CB  TYR     5     -13.916  -3.431  -0.938  1.00  0.00     0.060 C 
BRANCH  43  44
ATOM     44  CG  TYR     5     -13.079  -2.142  -0.890  1.00  0.00    -0.020 A 
ATOM     45  CD2 TYR     5     -12.954  -1.338  -2.015  1.00  0.00    -0.002 A 
ATOM     46  CE2 TYR     5     -12.200  -0.170  -1.960  1.00  0.00     0.027 A 
ATOM     47  CZ  TYR     5     -11.572   0.195  -0.779  1.00  0.00     0.131 A 
ATOM     48  CE1 TYR     5     -11.707  -0.595   0.357  1.00  0.00     0.027 A 
ATOM     49  OH  TYR     5     -10.728   1.249  -0.755  1.00  0.00    -0.190 OA
ATOM     50  CD1 TYR     5     -12.456  -1.770   0.296  1.00  0.00    -0.002 A 
ENDBRANCH  43  44
ENDBRANCH   5  43
ENDBRANCH   3   5
ENDBRANCH   1   2
BRANCH   1  51
ATOM     51  CB  ARG     6     -13.654  -6.625   2.861  1.00  0.00     0.036 C 
BRANCH  51  52
ATOM     52  CG  ARG     6     -12.544  -6.259   3.849  1.00  0.00     0.029 C 
BRANCH  52  53
ATOM     53  CD  ARG     6     -11.176  -6.569   3.249  1.00  0.00     0.145 C 
BRANCH  53  54
ATOM     54  NE  ARG     6     -10.123  -5.763   3.890  1.00  0.00    -0.083 NA
ATOM     55  CZ  ARG     6      -9.699  -4.556   3.470  1.00  0.00     0.782 C 
ATOM     56  NH2 ARG     6      -8.678  -3.947   4.078  1.00  0.00     0.063 N 
ATOM     57  NH1 ARG     6     -10.234  -3.994   2.392  1.00  0.00     0.063 N 
ENDBRANCH  53  54
ENDBRANCH  52  53
ENDBRANCH  51  52
ENDBRANCH   1  51
BRANCH   1  58
ATOM     58  C   ARG     6     -13.677  -8.478   1.254  1.00  0.00     0.274 C 
ATOM     59  N   ASN     7     -13.372  -9.020   0.078  1.00  0.00    -0.228 NA
ATOM     60  O   ARG     6     -14.346  -9.024   2.133  1.00  0.00    -0.268 OA
BRANCH  59  61
ATOM     61  CA  ASN     7     -13.717 -10.408  -0.293  1.00  0.00     0.196 C 
BRANCH  61  62
ATOM     62  C   ASN     7     -12.497 -11.166  -0.852  1.00  0.00     0.275 C 
ATOM     63  N   PHE     8     -12.186 -10.950  -2.139  1.00  0.00    -0.228 NA
ATOM     64  O   ASN     7     -11.688 -11.583  -0.047  1.00  0.00    -0.268 OA
BRANCH  63  65
ATOM     65  CA  PHE     8     -11.003 -11.517  -2.832  1.00  0.00     0.191 C 
BRANCH  65  66
ATOM     66  CB  PHE     8     -11.493 -12.293  -4.063  1.00  0.00     0.060 C 
BRANCH  66  67
ATOM     67  CG  PHE     8     -10.637 -13.522  -4.423  1.00  0.00    -0.020 A 
ATOM     68  CD1 PHE     8      -9.708 -14.008  -3.515  1.00  0.00    -0.004 A 
ATOM     69  CE1 PHE     8      -8.862 -15.056  -3.880  1.00  0.00    -0.000 A 
ATOM     70  CZ  PHE     8      -8.967 -15.615  -5.144  1.00  0.00    -0.000 A 
ATOM     71  CE2 PHE     8      -9.907 -15.138  -6.051  1.00  0.00    -0.000 A 
ATOM     72  CD2 PHE     8     -10.752 -14.090  -5.685  1.00  0.00    -0.004 A 
ENDBRANCH  66  67
ENDBRANCH  65  66
BRANCH  65  73
ATOM     73  C   PHE     8      -9.909 -10.491  -3.202  1.00  0.00     0.275 C 
ATOM     74  N   TRP     9     -10.236  -9.580  -4.121  1.00  0.00    -0.228 NA
ATOM     75  O   PHE     8      -8.737 -10.663  -2.860  1.00  0.00    -0.268 OA
BRANCH  74  76
ATOM     76  CA  TRP     9      -9.329  -8.463  -4.480  1.00  0.00     0.191 C 
BRANCH  76  77
ATOM     77  CB  TRP     9      -9.006  -8.549  -5.981  1.00  0.00     0.062 C 
BRANCH  77  78
ATOM     78  CG  TRP     9      -7.575  -9.003  -6.265  1.00  0.00     0.001 A 
ATOM     79  CD1 TRP     9      -6.606  -8.254  -6.783  1.00  0.00     0.095 A 
ATOM     80  NE1 TRP     9      -5.598  -9.027  -7.165  1.00  0.00    -0.244 NA
ATOM     81  CE2 TRP     9      -5.879 -10.291  -6.888  1.00  0.00     0.081 A 
ATOM     82  CD2 TRP     9      -7.143 -10.325  -6.322  1.00  0.00     0.015 A 
ATOM     83  CZ2 TRP     9      -5.217 -11.489  -7.156  1.00  0.00     0.019 A 
ATOM     84  CE3 TRP     9      -7.762 -11.532  -6.034  1.00  0.00     0.001 A 
ATOM     85  CZ3 TRP     9      -7.109 -12.728  -6.314  1.00  0.00     0.000 A 
ATOM     86  CH2 TRP     9      -5.826 -12.699  -6.858  1.00  0.00     0.002 A 
ENDBRANCH  77  78
ENDBRANCH  76  77
BRANCH  76  87
ATOM     87  C   TRP     9      -9.850  -7.061  -4.089  1.00  0.00     0.275 C 
ATOM     88  O   TRP     9     -10.964  -6.919  -3.594  1.00  0.00    -0.268 OA
ATOM     89  N   GLY    10      -8.989  -6.054  -4.227  1.00  0.00    -0.226 NA
BRANCH  89  90
ATOM     90  CA  GLY    10      -9.287  -4.641  -3.864  1.00  0.00     0.218 C 
BRANCH  90  91
ATOM     91  C   GLY    10      -8.964  -3.581  -4.929  1.00  0.00     0.277 C 
ATOM     92  N   CYS    11     -10.024  -3.058  -5.544  1.00  0.00    -0.228 NA
ATOM     93  O   GLY    10      -7.806  -3.385  -5.283  1.00  0.00    -0.268 OA
BRANCH  92  94
ATOM     94  CA  CYS    11     -10.010  -2.009  -6.588  1.00  0.00     0.198 C 
BRANCH  94  95
ATOM     95  C   CYS    11     -10.945  -0.871  -6.135  1.00  0.00     0.275 C 
ATOM     96  O   CYS    11     -10.457   0.143  -5.648  1.00  0.00    -0.268 OA
ATOM     97  N   GLY    12     -12.240  -1.153  -6.122  1.00  0.00    -0.225 NA
BRANCH  97  98
ATOM     98  CA  GLY    12     -13.266  -0.186  -5.701  1.00  0.00     0.226 C 
BRANCH  98  99
ATOM     99  C   GLY    12     -14.653  -0.833  -5.927  1.00  0.00     0.211 C 
ATOM    100  O1  GLY    12     -15.584  -0.064  -6.276  1.00  0.00    -0.646 OA
ATOM    101  O2  GLY    12     -14.747  -2.066  -5.783  1.00  0.00    -0.646 OA
ENDBRANCH  98  99
ENDBRANCH  97  98
ENDBRANCH  94  95
BRANCH  94 102
ATOM    102  CB  CYS    11     -10.613  -2.548  -7.883  1.00  0.00     0.103 C 
ATOM    103  SG  CYS    11     -10.923  -4.355  -7.940  1.00  0.00    -0.080 SA
ENDBRANCH  94 102
ENDBRANCH  92  94
ENDBRANCH  90  91
ENDBRANCH  89  90
ENDBRANCH  76  87
ENDBRANCH  74  76
ENDBRANCH  65  73
ENDBRANCH  63  65
ENDBRANCH  61  62
BRANCH  61 104
ATOM    104  CB  ASN     7     -14.884 -10.444  -1.288  1.00  0.00     0.126 C 
BRANCH 104 105
ATOM    105  CG  ASN     7     -15.980 -11.477  -0.964  1.00  0.00     0.276 C 
ATOM    106  ND2 ASN     7     -15.976 -12.569  -1.694  1.00  0.00    -0.107 N 
ATOM    107  OD1 ASN     7     -16.921 -11.288  -0.204  1.00  0.00    -0.269 OA
ENDBRANCH 104 105
ENDBRANCH  61 104
ENDBRANCH  59  61
ENDBRANCH   1  58
TORSDOF 42
ENDMDL
MODEL 7
REMARK VINA RESULT:      -4.3      3.734     10.083
REMARK WARNING: 32 MAX_TORS EXCEEDED!!!
REMARK  42 active torsions:
REMARK  status: ('A' for Active; 'I' for Inactive)
REMARK    1  A    between atoms: CA_2  and  CB_3 
REMARK    2  A    between atoms: CA_2  and  C_11 
REMARK    3  A    between atoms: CB_3  and  CG_4 
REMARK       I    between atoms: C_11  and  N_13 
REMARK    4  A    between atoms: N_13  and  CA_14 
REMARK    5  A    between atoms: CA_14  and  CB_15 
REMARK    6  A    between atoms: CA_14  and  C_19 
REMARK    7  A    between atoms: CB_15  and  CG_16 
REMARK       I    between atoms: C_19  and  N_21 
REMARK    8  A    between atoms: CA_22  and  C_26 
REMARK       I    between atoms: C_26  and  N_28 
REMARK    9  A    between atoms: N_28  and  CA_29 
REMARK   10  A    between atoms: CA_29  and  C_35 
REMARK   11  A    between atoms: CA_29  and  CB_30 
REMARK   12  A    between atoms: CB_30  and  CG_31 
REMARK   13  A    between atoms: CG_31  and  CD_32 
REMARK       I    between atoms: C_35  and  N_37 
REMARK   14  A    between atoms: N_37  and  CA_38 
REMARK   15  A    between atoms: CA_38  and  CB_39 
REMARK   16  A    between atoms: CA_38  and  C_47 
REMARK   17  A    between atoms: CB_39  and  CG_40 
REMARK       I    between atoms: C_47  and  N_49 
REMARK   18  A    between atoms: N_49  and  CA_50 
REMARK   19  A    between atoms: CA_50  and  CB_51 
REMARK   20  A    between atoms: CA_50  and  C_58 
REMARK   21  A    between atoms: CB_51  and  CG_52 
REMARK   22  A    between atoms: CG_52  and  CD_53 
REMARK   23  A    between atoms: CD_53  and  NE_54 
REMARK       I    between atoms: C_58  and  N_60 
REMARK   24  A    between atoms: N_60  and  CA_61 
REMARK   25  A    between atoms: CA_61  and  C_66 
REMARK   26  A    between atoms: CA_61  and  CB_62 
REMARK   27  A    between atoms: CB_62  and  CG_63 
REMARK       I    between atoms: C_66  and  N_68 
REMARK   28  A    between atoms: N_68  and  CA_69 
REMARK   29  A    between atoms: CA_69  and  CB_70 
REMARK   30  A    between atoms: CA_69  and  C_77 
REMARK   31  A    between atoms: CB_70  and  CG_71 
REMARK       I    between atoms: C_77  and  N_79 
REMARK   32  A    between atoms: N_79  and  CA_80 
REMARK   33  A    between atoms: CA_80  and  CB_81 
REMARK   34  A    between atoms: CA_80  and  C_91 
REMARK   35  A    between atoms: CB_81  and  CG_82 
REMARK       I    between atoms: C_91  and  N_93 
REMARK   36  A    between atoms: N_93  and  CA_94 
REMARK   37  A    between atoms: CA_94  and  C_95 
REMARK       I    between atoms: C_95  and  N_97 
REMARK   38  A    between atoms: N_97  and  CA_98 
REMARK   39  A    between atoms: CA_98  and  C_101 
REMARK   40  A    between atoms: CA_98  and  CB_99 
REMARK       I    between atoms: C_101  and  N_103 
REMARK   41  A    between atoms: N_103  and  CA_104 
REMARK   42  A    between atoms: CA_104  and  C_105 
ROOT
ATOM      1  CA  ARG     6       8.148 -31.162  -1.817  1.00  0.00     0.186 C 
ENDROOT
BRANCH   1   2
ATOM      2  N   ARG     6       6.859 -30.438  -1.915  1.00  0.00    -0.229 NA
ATOM      3  C   TYR     5       6.642 -29.270  -1.296  1.00  0.00     0.275 C 
ATOM      4  O   TYR     5       7.510 -28.708  -0.629  1.00  0.00    -0.268 OA
BRANCH   3   5
ATOM      5  CA  TYR     5       5.286 -28.588  -1.542  1.00  0.00     0.191 C 
BRANCH   5   6
ATOM      6  N   TYR     5       4.334 -28.737  -0.411  1.00  0.00    -0.228 NA
ATOM      7  C   GLU     4       3.181 -29.419  -0.507  1.00  0.00     0.274 C 
ATOM      8  O   GLU     4       2.890 -30.089  -1.490  1.00  0.00    -0.268 OA
BRANCH   7   9
ATOM      9  CA  GLU     4       2.385 -29.590   0.803  1.00  0.00     0.187 C 
BRANCH   9  10
ATOM     10  CB  GLU     4       3.350 -29.637   1.998  1.00  0.00     0.045 C 
BRANCH  10  11
ATOM     11  CG  GLU     4       3.950 -31.020   2.338  1.00  0.00     0.100 C 
BRANCH  11  12
ATOM     12  CD  GLU     4       5.395 -31.209   1.878  1.00  0.00     0.185 C 
ATOM     13  OE1 GLU     4       6.204 -30.275   2.114  1.00  0.00    -0.647 OA
ATOM     14  OE2 GLU     4       5.582 -31.997   0.929  1.00  0.00    -0.647 OA
ENDBRANCH  11  12
ENDBRANCH  10  11
ENDBRANCH   9  10
BRANCH   9  15
ATOM     15  N   GLU     4       1.551 -30.808   0.823  1.00  0.00    -0.229 NA
ATOM     16  C   PRO     3       0.302 -30.939   1.254  1.00  0.00     0.272 C 
ATOM     17  O   PRO     3      -0.480 -29.993   1.361  1.00  0.00    -0.269 OA
BRANCH  16  18
ATOM     18  CA  PRO     3      -0.283 -32.348   1.139  1.00  0.00     0.165 C 
ATOM     19  N   PRO     3       0.233 -33.145   0.006  1.00  0.00    -0.312 N 
ATOM     20  CD  PRO     3       0.448 -34.549   0.440  1.00  0.00     0.105 C 
ATOM     21  C   ASP     2       0.333 -32.683  -1.254  1.00  0.00     0.257 C 
ATOM     22  CG  PRO     3      -0.175 -34.612   1.843  1.00  0.00     0.027 C 
ATOM     23  CB  PRO     3      -0.005 -33.194   2.380  1.00  0.00     0.034 C 
ATOM     24  O   ASP     2      -0.210 -31.615  -1.575  1.00  0.00    -0.270 OA
BRANCH  21  25
ATOM     25  CA  ASP     2       0.807 -33.634  -2.377  1.00  0.00     0.195 C 
BRANCH  25  26
ATOM     26  CB  ASP     2       2.242 -34.205  -2.237  1.00  0.00     0.132 C 
BRANCH  26  27
ATOM     27  CG  ASP     2       2.258 -35.706  -2.580  1.00  0.00     0.188 C 
ATOM     28  OD2 ASP     2       3.075 -36.048  -3.473  1.00  0.00    -0.647 OA
ATOM     29  OD1 ASP     2       1.179 -36.331  -2.433  1.00  0.00    -0.647 OA
ENDBRANCH  26  27
ENDBRANCH  25  26
BRANCH  25  30
ATOM     30  N   ASP     2       0.859 -32.961  -3.686  1.00  0.00    -0.228 NA
ATOM     31  C   TYR     1       0.584 -33.494  -4.854  1.00  0.00     0.289 C 
ATOM     32  O   TYR     1       0.101 -34.606  -5.087  1.00  0.00    -0.268 OA
BRANCH  31  33
ATOM     33  CA  TYR     1       0.956 -32.567  -6.007  1.00  0.00     0.385 C 
ATOM     34  N   TYR     1      -0.222 -32.441  -6.882  1.00  0.00     0.626 N 
BRANCH  33  35
ATOM     35  CB  TYR     1       1.377 -31.231  -5.399  1.00  0.00     0.075 C 
BRANCH  35  36
ATOM     36  CG  TYR     1       2.863 -30.911  -5.623  1.00  0.00    -0.019 A 
ATOM     37  CD2 TYR     1       3.822 -31.230  -4.674  1.00  0.00    -0.002 A 
ATOM     38  CE2 TYR     1       5.168 -31.055  -4.957  1.00  0.00     0.027 A 
ATOM     39  CZ  TYR     1       5.542 -30.550  -6.201  1.00  0.00     0.131 A 
ATOM     40  CE1 TYR     1       4.578 -30.195  -7.128  1.00  0.00     0.027 A 
ATOM     41  OH  TYR     1       6.839 -30.546  -6.570  1.00  0.00    -0.190 OA
ATOM     42  CD1 TYR     1       3.232 -30.369  -6.845  1.00  0.00    -0.002 A 
ENDBRANCH  35  36
ENDBRANCH  33  35
ENDBRANCH  31  33
ENDBRANCH  25  30
ENDBRANCH  21  25
ENDBRANCH  16  18
ENDBRANCH   9  15
ENDBRANCH   7   9
ENDBRANCH   5   6
BRANCH   5  43
ATOM     43  CB  TYR     5       5.473 -27.100  -1.882  1.00  0.00     0.060 C 
BRANCH  43  44
ATOM     44  CG  TYR     5       4.665 -26.678  -3.120  1.00  0.00    -0.020 A 
ATOM     45  CD2 TYR     5       4.629 -25.349  -3.521  1.00  0.00    -0.002 A 
ATOM     46  CE2 TYR     5       3.901 -24.978  -4.648  1.00  0.00     0.027 A 
ATOM     47  CZ  TYR     5       3.209 -25.936  -5.373  1.00  0.00     0.131 A 
ATOM     48  CE1 TYR     5       3.255 -27.271  -4.988  1.00  0.00     0.027 A 
ATOM     49  OH  TYR     5       2.390 -25.566  -6.381  1.00  0.00    -0.190 OA
ATOM     50  CD1 TYR     5       3.979 -27.639  -3.854  1.00  0.00    -0.002 A 
ENDBRANCH  43  44
ENDBRANCH   5  43
ENDBRANCH   3   5
ENDBRANCH   1   2
BRANCH   1  51
ATOM     51  CB  ARG     6       7.972 -32.661  -1.594  1.00  0.00     0.036 C 
BRANCH  51  52
ATOM     52  CG  ARG     6       8.899 -33.236  -0.521  1.00  0.00     0.029 C 
BRANCH  52  53
ATOM     53  CD  ARG     6       9.384 -32.129   0.411  1.00  0.00     0.145 C 
BRANCH  53  54
ATOM     54  NE  ARG     6       8.928 -32.363   1.791  1.00  0.00    -0.083 NA
ATOM     55  CZ  ARG     6       9.327 -31.671   2.874  1.00  0.00     0.782 C 
ATOM     56  NH2 ARG     6       8.913 -32.021   4.094  1.00  0.00     0.063 N 
ATOM     57  NH1 ARG     6      10.208 -30.683   2.752  1.00  0.00     0.063 N 
ENDBRANCH  53  54
ENDBRANCH  52  53
ENDBRANCH  51  52
ENDBRANCH   1  51
BRANCH   1  58
ATOM     58  C   ARG     6       9.007 -31.004  -3.078  1.00  0.00     0.274 C 
ATOM     59  N   ASN     7       9.798 -29.935  -3.106  1.00  0.00    -0.228 NA
ATOM     60  O   ARG     6       8.922 -31.845  -3.973  1.00  0.00    -0.268 OA
BRANCH  59  61
ATOM     61  CA  ASN     7      10.767 -29.667  -4.190  1.00  0.00     0.196 C 
BRANCH  61  62
ATOM     62  C   ASN     7      11.933 -28.786  -3.702  1.00  0.00     0.275 C 
ATOM     63  N   PHE     8      12.090 -27.598  -4.304  1.00  0.00    -0.228 NA
ATOM     64  O   ASN     7      12.379 -29.020  -2.595  1.00  0.00    -0.268 OA
BRANCH  63  65
ATOM     65  CA  PHE     8      13.096 -26.578  -3.920  1.00  0.00     0.191 C 
BRANCH  65  66
ATOM     66  CB  PHE     8      14.466 -27.034  -4.440  1.00  0.00     0.060 C 
BRANCH  66  67
ATOM     67  CG  PHE     8      15.614 -26.887  -3.423  1.00  0.00    -0.020 A 
ATOM     68  CD1 PHE     8      15.659 -27.712  -2.307  1.00  0.00    -0.004 A 
ATOM     69  CE1 PHE     8      16.640 -27.511  -1.335  1.00  0.00    -0.000 A 
ATOM     70  CZ  PHE     8      17.572 -26.499  -1.498  1.00  0.00    -0.000 A 
ATOM     71  CE2 PHE     8      17.536 -25.681  -2.622  1.00  0.00    -0.000 A 
ATOM     72  CD2 PHE     8      16.556 -25.881  -3.593  1.00  0.00    -0.004 A 
ENDBRANCH  66  67
ENDBRANCH  65  66
BRANCH  65  73
ATOM     73  C   PHE     8      12.767 -25.135  -4.366  1.00  0.00     0.275 C 
ATOM     74  N   TRP     9      11.618 -24.624  -3.922  1.00  0.00    -0.228 NA
ATOM     75  O   PHE     8      13.399 -24.594  -5.277  1.00  0.00    -0.268 OA
BRANCH  74  76
ATOM     76  CA  TRP     9      11.236 -23.212  -4.170  1.00  0.00     0.191 C 
BRANCH  76  77
ATOM     77  CB  TRP     9       9.749 -23.161  -4.560  1.00  0.00     0.062 C 
BRANCH  77  78
ATOM     78  CG  TRP     9       9.445 -23.891  -5.867  1.00  0.00     0.001 A 
ATOM     79  CD1 TRP     9       9.633 -23.409  -7.092  1.00  0.00     0.095 A 
ATOM     80  NE1 TRP     9       8.998 -24.169  -7.976  1.00  0.00    -0.244 NA
ATOM     81  CE2 TRP     9       8.400 -25.171  -7.349  1.00  0.00     0.081 A 
ATOM     82  CD2 TRP     9       8.649 -25.025  -5.993  1.00  0.00     0.015 A 
ATOM     83  CZ2 TRP     9       7.546 -26.185  -7.783  1.00  0.00     0.019 A 
ATOM     84  CE3 TRP     9       8.047 -25.863  -5.066  1.00  0.00     0.001 A 
ATOM     85  CZ3 TRP     9       7.185 -26.866  -5.496  1.00  0.00     0.000 A 
ATOM     86  CH2 TRP     9       6.953 -27.033  -6.860  1.00  0.00     0.002 A 
ENDBRANCH  77  78
ENDBRANCH  76  77
BRANCH  76  87
ATOM     87  C   TRP     9      11.553 -22.247  -3.005  1.00  0.00     0.275 C 
ATOM     88  O   TRP     9      11.818 -22.676  -1.886  1.00  0.00    -0.268 OA
ATOM     89  N   GLY    10      11.617 -20.953  -3.314  1.00  0.00    -0.226 NA
BRANCH  89  90
ATOM     90  CA  GLY    10      11.951 -19.875  -2.343  1.00  0.00     0.218 C 
BRANCH  90  91
ATOM     91  C   GLY    10      12.548 -18.586  -2.933  1.00  0.00     0.277 C 
ATOM     92  N   CYS    11      13.417 -18.771  -3.925  1.00  0.00    -0.228 NA
ATOM     93  O   GLY    10      12.352 -17.504  -2.392  1.00  0.00    -0.268 OA
BRANCH  92  94
ATOM     94  CA  CYS    11      14.122 -17.716  -4.687  1.00  0.00     0.198 C 
BRANCH  94  95
ATOM     95  C   CYS    11      13.659 -17.796  -6.155  1.00  0.00     0.275 C 
ATOM     96  O   CYS    11      12.930 -16.915  -6.599  1.00  0.00    -0.268 OA
ATOM     97  N   GLY    12      13.925 -18.929  -6.789  1.00  0.00    -0.225 NA
BRANCH  97  98
ATOM     98  CA  GLY    12      13.538 -19.176  -8.187  1.00  0.00     0.226 C 
BRANCH  98  99
ATOM     99  C   GLY    12      12.282 -20.077  -8.183  1.00  0.00     0.211 C 
ATOM    100  O1  GLY    12      12.409 -21.220  -7.674  1.00  0.00    -0.646 OA
ATOM    101  O2  GLY    12      11.228 -19.605  -8.647  1.00  0.00    -0.646 OA
ENDBRANCH  98  99
ENDBRANCH  97  98
ENDBRANCH  94  95
BRANCH  94 102
ATOM    102  CB  CYS    11      15.622 -18.000  -4.712  1.00  0.00     0.103 C 
ATOM    103  SG  CYS    11      16.178 -19.493  -3.802  1.00  0.00    -0.080 SA
ENDBRANCH  94 102
ENDBRANCH  92  94
ENDBRANCH  90  91
ENDBRANCH  89  90
ENDBRANCH  76  87
ENDBRANCH  74  76
ENDBRANCH  65  73
ENDBRANCH  63  65
ENDBRANCH  61  62
BRANCH  61 104
ATOM    104  CB  ASN     7      10.079 -29.037  -5.408  1.00  0.00     0.126 C 
BRANCH 104 105
ATOM    105  CG  ASN     7      10.506 -29.622  -6.767  1.00  0.00     0.276 C 
ATOM    106  ND2 ASN     7      10.349 -30.918  -6.911  1.00  0.00    -0.107 N 
ATOM    107  OD1 ASN     7      11.111 -29.009  -7.637  1.00  0.00    -0.269 OA
ENDBRANCH 104 105
ENDBRANCH  61 104
ENDBRANCH  59  61
ENDBRANCH   1  58
TORSDOF 42
ENDMDL
MODEL 8
REMARK VINA RESULT:      -4.3     10.035     19.143
REMARK WARNING: 32 MAX_TORS EXCEEDED!!!
REMARK  42 active torsions:
REMARK  status: ('A' for Active; 'I' for Inactive)
REMARK    1  A    between atoms: CA_2  and  CB_3 
REMARK    2  A    between atoms: CA_2  and  C_11 
REMARK    3  A    between atoms: CB_3  and  CG_4 
REMARK       I    between atoms: C_11  and  N_13 
REMARK    4  A    between atoms: N_13  and  CA_14 
REMARK    5  A    between atoms: CA_14  and  CB_15 
REMARK    6  A    between atoms: CA_14  and  C_19 
REMARK    7  A    between atoms: CB_15  and  CG_16 
REMARK       I    between atoms: C_19  and  N_21 
REMARK    8  A    between atoms: CA_22  and  C_26 
REMARK       I    between atoms: C_26  and  N_28 
REMARK    9  A    between atoms: N_28  and  CA_29 
REMARK   10  A    between atoms: CA_29  and  C_35 
REMARK   11  A    between atoms: CA_29  and  CB_30 
REMARK   12  A    between atoms: CB_30  and  CG_31 
REMARK   13  A    between atoms: CG_31  and  CD_32 
REMARK       I    between atoms: C_35  and  N_37 
REMARK   14  A    between atoms: N_37  and  CA_38 
REMARK   15  A    between atoms: CA_38  and  CB_39 
REMARK   16  A    between atoms: CA_38  and  C_47 
REMARK   17  A    between atoms: CB_39  and  CG_40 
REMARK       I    between atoms: C_47  and  N_49 
REMARK   18  A    between atoms: N_49  and  CA_50 
REMARK   19  A    between atoms: CA_50  and  CB_51 
REMARK   20  A    between atoms: CA_50  and  C_58 
REMARK   21  A    between atoms: CB_51  and  CG_52 
REMARK   22  A    between atoms: CG_52  and  CD_53 
REMARK   23  A    between atoms: CD_53  and  NE_54 
REMARK       I    between atoms: C_58  and  N_60 
REMARK   24  A    between atoms: N_60  and  CA_61 
REMARK   25  A    between atoms: CA_61  and  C_66 
REMARK   26  A    between atoms: CA_61  and  CB_62 
REMARK   27  A    between atoms: CB_62  and  CG_63 
REMARK       I    between atoms: C_66  and  N_68 
REMARK   28  A    between atoms: N_68  and  CA_69 
REMARK   29  A    between atoms: CA_69  and  CB_70 
REMARK   30  A    between atoms: CA_69  and  C_77 
REMARK   31  A    between atoms: CB_70  and  CG_71 
REMARK       I    between atoms: C_77  and  N_79 
REMARK   32  A    between atoms: N_79  and  CA_80 
REMARK   33  A    between atoms: CA_80  and  CB_81 
REMARK   34  A    between atoms: CA_80  and  C_91 
REMARK   35  A    between atoms: CB_81  and  CG_82 
REMARK       I    between atoms: C_91  and  N_93 
REMARK   36  A    between atoms: N_93  and  CA_94 
REMARK   37  A    between atoms: CA_94  and  C_95 
REMARK       I    between atoms: C_95  and  N_97 
REMARK   38  A    between atoms: N_97  and  CA_98 
REMARK   39  A    between atoms: CA_98  and  C_101 
REMARK   40  A    between atoms: CA_98  and  CB_99 
REMARK       I    between atoms: C_101  and  N_103 
REMARK   41  A    between atoms: N_103  and  CA_104 
REMARK   42  A    between atoms: CA_104  and  C_105 
ROOT
ATOM      1  CA  ARG     6       0.752 -34.334  -5.906  1.00  0.00     0.186 C 
ENDROOT
BRANCH   1   2
ATOM      2  N   ARG     6      -0.038 -34.351  -4.653  1.00  0.00    -0.229 NA
ATOM      3  C   TYR     5      -0.037 -35.398  -3.817  1.00  0.00     0.275 C 
ATOM      4  O   TYR     5       0.644 -36.403  -4.022  1.00  0.00    -0.268 OA
BRANCH   3   5
ATOM      5  CA  TYR     5      -0.841 -35.256  -2.515  1.00  0.00     0.191 C 
BRANCH   5   6
ATOM      6  N   TYR     5      -1.692 -36.436  -2.212  1.00  0.00    -0.228 NA
ATOM      7  C   GLU     4      -2.882 -36.344  -1.595  1.00  0.00     0.274 C 
ATOM      8  O   GLU     4      -3.423 -35.271  -1.361  1.00  0.00    -0.268 OA
BRANCH   7   9
ATOM      9  CA  GLU     4      -3.691 -37.652  -1.488  1.00  0.00     0.187 C 
BRANCH   9  10
ATOM     10  CB  GLU     4      -2.739 -38.859  -1.512  1.00  0.00     0.045 C 
BRANCH  10  11
ATOM     11  CG  GLU     4      -3.371 -40.235  -1.210  1.00  0.00     0.100 C 
BRANCH  11  12
ATOM     12  CD  GLU     4      -3.310 -41.224  -2.373  1.00  0.00     0.185 C 
ATOM     13  OE1 GLU     4      -2.187 -41.418  -2.909  1.00  0.00    -0.647 OA
ATOM     14  OE2 GLU     4      -4.366 -41.406  -3.011  1.00  0.00    -0.647 OA
ENDBRANCH  11  12
ENDBRANCH  10  11
ENDBRANCH   9  10
BRANCH   9  15
ATOM     15  N   GLU     4      -4.683 -37.814  -2.570  1.00  0.00    -0.229 NA
ATOM     16  C   PRO     3      -5.970 -37.491  -2.556  1.00  0.00     0.272 C 
ATOM     17  O   PRO     3      -6.453 -36.669  -1.776  1.00  0.00    -0.269 OA
BRANCH  16  18
ATOM     18  CA  PRO     3      -6.732 -37.791  -3.849  1.00  0.00     0.165 C 
ATOM     19  N   PRO     3      -8.054 -38.426  -3.658  1.00  0.00    -0.312 N 
ATOM     20  CD  PRO     3      -9.031 -37.842  -4.612  1.00  0.00     0.105 C 
ATOM     21  C   ASP     2      -8.272 -39.479  -2.849  1.00  0.00     0.257 C 
ATOM     22  CG  PRO     3      -8.175 -36.969  -5.544  1.00  0.00     0.027 C 
ATOM     23  CB  PRO     3      -7.011 -36.529  -4.662  1.00  0.00     0.034 C 
ATOM     24  O   ASP     2      -7.317 -40.113  -2.375  1.00  0.00    -0.270 OA
BRANCH  21  25
ATOM     25  CA  ASP     2      -9.679 -40.116  -2.793  1.00  0.00     0.195 C 
BRANCH  25  26
ATOM     26  CB  ASP     2      -9.961 -41.060  -1.596  1.00  0.00     0.132 C 
BRANCH  26  27
ATOM     27  CG  ASP     2     -11.358 -40.784  -1.011  1.00  0.00     0.188 C 
ATOM     28  OD2 ASP     2     -11.829 -39.642  -1.248  1.00  0.00    -0.647 OA
ATOM     29  OD1 ASP     2     -11.654 -41.385   0.052  1.00  0.00    -0.647 OA
ENDBRANCH  26  27
ENDBRANCH  25  26
BRANCH  25  30
ATOM     30  N   ASP     2      -9.939 -40.987  -3.952  1.00  0.00    -0.228 NA
ATOM     31  C   TYR     1     -10.900 -40.851  -4.836  1.00  0.00     0.289 C 
ATOM     32  O   TYR     1     -11.691 -39.910  -4.961  1.00  0.00    -0.268 OA
BRANCH  31  33
ATOM     33  CA  TYR     1     -10.995 -42.056  -5.766  1.00  0.00     0.385 C 
ATOM     34  N   TYR     1      -9.951 -41.914  -6.795  1.00  0.00     0.626 N 
BRANCH  33  35
ATOM     35  CB  TYR     1     -10.808 -43.307  -4.912  1.00  0.00     0.075 C 
BRANCH  35  36
ATOM     36  CG  TYR     1     -12.108 -43.777  -4.242  1.00  0.00    -0.019 A 
ATOM     37  CD2 TYR     1     -13.261 -44.003  -4.979  1.00  0.00    -0.002 A 
ATOM     38  CE2 TYR     1     -14.379 -44.555  -4.373  1.00  0.00     0.027 A 
ATOM     39  CZ  TYR     1     -14.330 -44.873  -3.016  1.00  0.00     0.131 A 
ATOM     40  CE1 TYR     1     -13.191 -44.607  -2.278  1.00  0.00     0.027 A 
ATOM     41  OH  TYR     1     -15.329 -45.578  -2.449  1.00  0.00    -0.190 OA
ATOM     42  CD1 TYR     1     -12.073 -44.054  -2.883  1.00  0.00    -0.002 A 
ENDBRANCH  35  36
ENDBRANCH  33  35
ENDBRANCH  31  33
ENDBRANCH  25  30
ENDBRANCH  21  25
ENDBRANCH  16  18
ENDBRANCH   9  15
ENDBRANCH   7   9
ENDBRANCH   5   6
BRANCH   5  43
ATOM     43  CB  TYR     5       0.087 -34.955  -1.326  1.00  0.00     0.060 C 
BRANCH  43  44
ATOM     44  CG  TYR     5      -0.346 -33.699  -0.551  1.00  0.00    -0.020 A 
ATOM     45  CD2 TYR     5      -0.456 -32.473  -1.195  1.00  0.00    -0.002 A 
ATOM     46  CE2 TYR     5      -0.856 -31.344  -0.487  1.00  0.00     0.027 A 
ATOM     47  CZ  TYR     5      -1.146 -31.441   0.866  1.00  0.00     0.131 A 
ATOM     48  CE1 TYR     5      -1.056 -32.667   1.514  1.00  0.00     0.027 A 
ATOM     49  OH  TYR     5      -1.398 -30.328   1.589  1.00  0.00    -0.190 OA
ATOM     50  CD1 TYR     5      -0.646 -33.796   0.804  1.00  0.00    -0.002 A 
ENDBRANCH  43  44
ENDBRANCH   5  43
ENDBRANCH   3   5
ENDBRANCH   1   2
BRANCH   1  51
ATOM     51  CB  ARG     6      -0.085 -34.656  -7.140  1.00  0.00     0.036 C 
BRANCH  51  52
ATOM     52  CG  ARG     6      -0.006 -36.122  -7.571  1.00  0.00     0.029 C 
BRANCH  52  53
ATOM     53  CD  ARG     6      -1.295 -36.853  -7.210  1.00  0.00     0.145 C 
BRANCH  53  54
ATOM     54  NE  ARG     6      -2.466 -35.979  -7.390  1.00  0.00    -0.083 NA
ATOM     55  CZ  ARG     6      -3.731 -36.285  -7.043  1.00  0.00     0.782 C 
ATOM     56  NH2 ARG     6      -4.733 -35.451  -7.329  1.00  0.00     0.063 N 
ATOM     57  NH1 ARG     6      -4.009 -37.461  -6.490  1.00  0.00     0.063 N 
ENDBRANCH  53  54
ENDBRANCH  52  53
ENDBRANCH  51  52
ENDBRANCH   1  51
BRANCH   1  58
ATOM     58  C   ARG     6       1.411 -32.974  -6.166  1.00  0.00     0.274 C 
ATOM     59  N   ASN     7       0.756 -31.916  -5.696  1.00  0.00    -0.228 NA
ATOM     60  O   ARG     6       2.478 -32.930  -6.781  1.00  0.00    -0.268 OA
BRANCH  59  61
ATOM     61  CA  ASN     7       1.281 -30.536  -5.763  1.00  0.00     0.196 C 
BRANCH  61  62
ATOM     62  C   ASN     7       2.170 -30.208  -4.548  1.00  0.00     0.275 C 
ATOM     63  N   PHE     8       1.609 -30.326  -3.335  1.00  0.00    -0.228 NA
ATOM     64  O   ASN     7       3.374 -30.246  -4.715  1.00  0.00    -0.268 OA
BRANCH  63  65
ATOM     65  CA  PHE     8       2.322 -30.139  -2.048  1.00  0.00     0.191 C 
BRANCH  65  66
ATOM     66  CB  PHE     8       3.202 -31.372  -1.803  1.00  0.00     0.060 C 
BRANCH  66  67
ATOM     67  CG  PHE     8       3.085 -31.966  -0.386  1.00  0.00    -0.020 A 
ATOM     68  CD1 PHE     8       3.307 -33.321  -0.183  1.00  0.00    -0.004 A 
ATOM     69  CE1 PHE     8       3.101 -33.876   1.080  1.00  0.00    -0.000 A 
ATOM     70  CZ  PHE     8       2.690 -33.069   2.128  1.00  0.00    -0.000 A 
ATOM     71  CE2 PHE     8       2.480 -31.708   1.929  1.00  0.00    -0.000 A 
ATOM     72  CD2 PHE     8       2.686 -31.152   0.667  1.00  0.00    -0.004 A 
ENDBRANCH  66  67
ENDBRANCH  65  66
BRANCH  65  73
ATOM     73  C   PHE     8       3.132 -28.827  -1.936  1.00  0.00     0.275 C 
ATOM     74  N   TRP     9       4.404 -28.946  -1.551  1.00  0.00    -0.228 NA
ATOM     75  O   PHE     8       2.568 -27.731  -1.953  1.00  0.00    -0.268 OA
BRANCH  74  76
ATOM     76  CA  TRP     9       5.329 -27.787  -1.520  1.00  0.00     0.191 C 
BRANCH  76  77
ATOM     77  CB  TRP     9       6.526 -28.132  -0.618  1.00  0.00     0.062 C 
BRANCH  77  78
ATOM     78  CG  TRP     9       6.187 -29.152   0.468  1.00  0.00     0.001 A 
ATOM     79  CD1 TRP     9       5.937 -28.879   1.745  1.00  0.00     0.095 A 
ATOM     80  NE1 TRP     9       5.974 -29.997   2.459  1.00  0.00    -0.244 NA
ATOM     81  CE2 TRP     9       6.230 -31.023   1.661  1.00  0.00     0.081 A 
ATOM     82  CD2 TRP     9       6.388 -30.525   0.377  1.00  0.00     0.015 A 
ATOM     83  CZ2 TRP     9       6.460 -32.377   1.904  1.00  0.00     0.019 A 
ATOM     84  CE3 TRP     9       6.785 -31.354  -0.663  1.00  0.00     0.001 A 
ATOM     85  CZ3 TRP     9       7.028 -32.702  -0.419  1.00  0.00     0.000 A 
ATOM     86  CH2 TRP     9       6.845 -33.211   0.865  1.00  0.00     0.002 A 
ENDBRANCH  77  78
ENDBRANCH  76  77
BRANCH  76  87
ATOM     87  C   TRP     9       5.787 -27.295  -2.911  1.00  0.00     0.275 C 
ATOM     88  O   TRP     9       5.643 -26.122  -3.243  1.00  0.00    -0.268 OA
ATOM     89  N   GLY    10       6.427 -28.184  -3.669  1.00  0.00    -0.226 NA
BRANCH  89  90
ATOM     90  CA  GLY    10       6.982 -27.891  -5.019  1.00  0.00     0.218 C 
BRANCH  90  91
ATOM     91  C   GLY    10       6.058 -27.135  -5.987  1.00  0.00     0.277 C 
ATOM     92  N   CYS    11       4.998 -27.824  -6.407  1.00  0.00    -0.228 NA
ATOM     93  O   GLY    10       6.394 -26.052  -6.452  1.00  0.00    -0.268 OA
BRANCH  92  94
ATOM     94  CA  CYS    11       3.937 -27.341  -7.319  1.00  0.00     0.198 C 
BRANCH  94  95
ATOM     95  C   CYS    11       2.835 -26.684  -6.465  1.00  0.00     0.275 C 
ATOM     96  O   CYS    11       2.677 -27.056  -5.307  1.00  0.00    -0.268 OA
ATOM     97  N   GLY    12       1.993 -25.891  -7.111  1.00  0.00    -0.225 NA
BRANCH  97  98
ATOM     98  CA  GLY    12       0.876 -25.198  -6.450  1.00  0.00     0.226 C 
BRANCH  98  99
ATOM     99  C   GLY    12       1.305 -23.735  -6.195  1.00  0.00     0.211 C 
ATOM    100  O1  GLY    12       2.538 -23.493  -6.236  1.00  0.00    -0.646 OA
ATOM    101  O2  GLY    12       0.408 -22.893  -6.003  1.00  0.00    -0.646 OA
ENDBRANCH  98  99
ENDBRANCH  97  98
ENDBRANCH  94  95
BRANCH  94 102
ATOM    102  CB  CYS    11       3.267 -28.522  -8.018  1.00  0.00     0.103 C 
ATOM    103  SG  CYS    11       4.300 -30.020  -8.242  1.00  0.00    -0.080 SA
ENDBRANCH  94 102
ENDBRANCH  92  94
ENDBRANCH  90  91
ENDBRANCH  89  90
ENDBRANCH  76  87
ENDBRANCH  74  76
ENDBRANCH  65  73
ENDBRANCH  63  65
ENDBRANCH  61  62
BRANCH  61 104
ATOM    104  CB  ASN     7       0.146 -29.514  -5.900  1.00  0.00     0.126 C 
BRANCH 104 105
ATOM    105  CG  ASN     7      -0.299 -29.231  -7.347  1.00  0.00     0.276 C 
ATOM    106  ND2 ASN     7      -0.586 -30.283  -8.079  1.00  0.00    -0.107 N 
ATOM    107  OD1 ASN     7      -0.252 -28.136  -7.895  1.00  0.00    -0.269 OA
ENDBRANCH 104 105
ENDBRANCH  61 104
ENDBRANCH  59  61
ENDBRANCH   1  58
TORSDOF 42
ENDMDL
MODEL 9
REMARK VINA RESULT:      -4.3      9.003     18.105
REMARK WARNING: 32 MAX_TORS EXCEEDED!!!
REMARK  42 active torsions:
REMARK  status: ('A' for Active; 'I' for Inactive)
REMARK    1  A    between atoms: CA_2  and  CB_3 
REMARK    2  A    between atoms: CA_2  and  C_11 
REMARK    3  A    between atoms: CB_3  and  CG_4 
REMARK       I    between atoms: C_11  and  N_13 
REMARK    4  A    between atoms: N_13  and  CA_14 
REMARK    5  A    between atoms: CA_14  and  CB_15 
REMARK    6  A    between atoms: CA_14  and  C_19 
REMARK    7  A    between atoms: CB_15  and  CG_16 
REMARK       I    between atoms: C_19  and  N_21 
REMARK    8  A    between atoms: CA_22  and  C_26 
REMARK       I    between atoms: C_26  and  N_28 
REMARK    9  A    between atoms: N_28  and  CA_29 
REMARK   10  A    between atoms: CA_29  and  C_35 
REMARK   11  A    between atoms: CA_29  and  CB_30 
REMARK   12  A    between atoms: CB_30  and  CG_31 
REMARK   13  A    between atoms: CG_31  and  CD_32 
REMARK       I    between atoms: C_35  and  N_37 
REMARK   14  A    between atoms: N_37  and  CA_38 
REMARK   15  A    between atoms: CA_38  and  CB_39 
REMARK   16  A    between atoms: CA_38  and  C_47 
REMARK   17  A    between atoms: CB_39  and  CG_40 
REMARK       I    between atoms: C_47  and  N_49 
REMARK   18  A    between atoms: N_49  and  CA_50 
REMARK   19  A    between atoms: CA_50  and  CB_51 
REMARK   20  A    between atoms: CA_50  and  C_58 
REMARK   21  A    between atoms: CB_51  and  CG_52 
REMARK   22  A    between atoms: CG_52  and  CD_53 
REMARK   23  A    between atoms: CD_53  and  NE_54 
REMARK       I    between atoms: C_58  and  N_60 
REMARK   24  A    between atoms: N_60  and  CA_61 
REMARK   25  A    between atoms: CA_61  and  C_66 
REMARK   26  A    between atoms: CA_61  and  CB_62 
REMARK   27  A    between atoms: CB_62  and  CG_63 
REMARK       I    between atoms: C_66  and  N_68 
REMARK   28  A    between atoms: N_68  and  CA_69 
REMARK   29  A    between atoms: CA_69  and  CB_70 
REMARK   30  A    between atoms: CA_69  and  C_77 
REMARK   31  A    between atoms: CB_70  and  CG_71 
REMARK       I    between atoms: C_77  and  N_79 
REMARK   32  A    between atoms: N_79  and  CA_80 
REMARK   33  A    between atoms: CA_80  and  CB_81 
REMARK   34  A    between atoms: CA_80  and  C_91 
REMARK   35  A    between atoms: CB_81  and  CG_82 
REMARK       I    between atoms: C_91  and  N_93 
REMARK   36  A    between atoms: N_93  and  CA_94 
REMARK   37  A    between atoms: CA_94  and  C_95 
REMARK       I    between atoms: C_95  and  N_97 
REMARK   38  A    between atoms: N_97  and  CA_98 
REMARK   39  A    between atoms: CA_98  and  C_101 
REMARK   40  A    between atoms: CA_98  and  CB_99 
REMARK       I    between atoms: C_101  and  N_103 
REMARK   41  A    between atoms: N_103  and  CA_104 
REMARK   42  A    between atoms: CA_104  and  C_105 
ROOT
ATOM      1  CA  ARG     6       0.318 -35.084  -3.285  1.00  0.00     0.186 C 
ENDROOT
BRANCH   1   2
ATOM      2  N   ARG     6      -0.468 -34.535  -2.156  1.00  0.00    -0.229 NA
ATOM      3  C   TYR     5       0.031 -34.431  -0.917  1.00  0.00     0.275 C 
ATOM      4  O   TYR     5       1.186 -34.757  -0.643  1.00  0.00    -0.268 OA
BRANCH   3   5
ATOM      5  CA  TYR     5      -0.865 -33.775   0.146  1.00  0.00     0.191 C 
BRANCH   5   6
ATOM      6  N   TYR     5      -2.175 -34.455   0.320  1.00  0.00    -0.228 NA
ATOM      7  C   GLU     4      -3.340 -33.793   0.408  1.00  0.00     0.274 C 
ATOM      8  O   GLU     4      -3.431 -32.588   0.210  1.00  0.00    -0.268 OA
BRANCH   7   9
ATOM      9  CA  GLU     4      -4.612 -34.664   0.444  1.00  0.00     0.187 C 
BRANCH   9  10
ATOM     10  CB  GLU     4      -4.956 -35.025   1.898  1.00  0.00     0.045 C 
BRANCH  10  11
ATOM     11  CG  GLU     4      -6.333 -34.552   2.413  1.00  0.00     0.100 C 
BRANCH  11  12
ATOM     12  CD  GLU     4      -6.580 -33.052   2.260  1.00  0.00     0.185 C 
ATOM     13  OE1 GLU     4      -5.756 -32.272   2.806  1.00  0.00    -0.647 OA
ATOM     14  OE2 GLU     4      -7.757 -32.696   2.045  1.00  0.00    -0.647 OA
ENDBRANCH  11  12
ENDBRANCH  10  11
ENDBRANCH   9  10
BRANCH   9  15
ATOM     15  N   GLU     4      -4.487 -35.911  -0.334  1.00  0.00    -0.229 NA
ATOM     16  C   PRO     3      -5.119 -36.247  -1.453  1.00  0.00     0.272 C 
ATOM     17  O   PRO     3      -5.629 -35.424  -2.215  1.00  0.00    -0.269 OA
BRANCH  16  18
ATOM     18  CA  PRO     3      -4.764 -37.625  -2.014  1.00  0.00     0.165 C 
ATOM     19  N   PRO     3      -5.922 -38.436  -2.448  1.00  0.00    -0.312 N 
ATOM     20  CD  PRO     3      -5.591 -39.143  -3.712  1.00  0.00     0.105 C 
ATOM     21  C   ASP     2      -7.034 -38.613  -1.712  1.00  0.00     0.257 C 
ATOM     22  CG  PRO     3      -4.088 -38.889  -3.906  1.00  0.00     0.027 C 
ATOM     23  CB  PRO     3      -3.860 -37.535  -3.241  1.00  0.00     0.034 C 
ATOM     24  O   ASP     2      -7.057 -38.271  -0.520  1.00  0.00    -0.270 OA
BRANCH  21  25
ATOM     25  CA  ASP     2      -8.147 -39.553  -2.228  1.00  0.00     0.195 C 
BRANCH  25  26
ATOM     26  CB  ASP     2      -8.950 -39.059  -3.459  1.00  0.00     0.132 C 
BRANCH  26  27
ATOM     27  CG  ASP     2     -10.268 -39.843  -3.592  1.00  0.00     0.188 C 
ATOM     28  OD2 ASP     2     -10.161 -41.008  -4.055  1.00  0.00    -0.647 OA
ATOM     29  OD1 ASP     2     -11.308 -39.169  -3.799  1.00  0.00    -0.647 OA
ENDBRANCH  26  27
ENDBRANCH  25  26
BRANCH  25  30
ATOM     30  N   ASP     2      -9.203 -39.765  -1.224  1.00  0.00    -0.228 NA
ATOM     31  C   TYR     1      -9.271 -40.742  -0.350  1.00  0.00     0.289 C 
ATOM     32  O   TYR     1      -8.415 -41.596  -0.097  1.00  0.00    -0.268 OA
BRANCH  31  33
ATOM     33  CA  TYR     1     -10.610 -40.764   0.380  1.00  0.00     0.385 C 
ATOM     34  N   TYR     1     -10.723 -39.515   1.152  1.00  0.00     0.626 N 
BRANCH  33  35
ATOM     35  CB  TYR     1     -11.703 -40.898  -0.678  1.00  0.00     0.075 C 
BRANCH  35  36
ATOM     36  CG  TYR     1     -12.267 -42.324  -0.781  1.00  0.00    -0.019 A 
ATOM     37  CD2 TYR     1     -12.329 -42.990  -1.996  1.00  0.00    -0.002 A 
ATOM     38  CE2 TYR     1     -12.715 -44.321  -2.042  1.00  0.00     0.027 A 
ATOM     39  CZ  TYR     1     -13.044 -44.976  -0.856  1.00  0.00     0.131 A 
ATOM     40  CE1 TYR     1     -13.019 -44.294   0.347  1.00  0.00     0.027 A 
ATOM     41  OH  TYR     1     -13.239 -46.310  -0.849  1.00  0.00    -0.190 OA
ATOM     42  CD1 TYR     1     -12.634 -42.962   0.394  1.00  0.00    -0.002 A 
ENDBRANCH  35  36
ENDBRANCH  33  35
ENDBRANCH  31  33
ENDBRANCH  25  30
ENDBRANCH  21  25
ENDBRANCH  16  18
ENDBRANCH   9  15
ENDBRANCH   7   9
ENDBRANCH   5   6
BRANCH   5  43
ATOM     43  CB  TYR     5      -0.136 -33.681   1.497  1.00  0.00     0.060 C 
BRANCH  43  44
ATOM     44  CG  TYR     5      -0.230 -32.275   2.114  1.00  0.00    -0.020 A 
ATOM     45  CD2 TYR     5      -0.184 -32.104   3.492  1.00  0.00    -0.002 A 
ATOM     46  CE2 TYR     5      -0.262 -30.827   4.041  1.00  0.00     0.027 A 
ATOM     47  CZ  TYR     5      -0.386 -29.723   3.213  1.00  0.00     0.131 A 
ATOM     48  CE1 TYR     5      -0.415 -29.884   1.832  1.00  0.00     0.027 A 
ATOM     49  OH  TYR     5      -0.603 -28.498   3.739  1.00  0.00    -0.190 OA
ATOM     50  CD1 TYR     5      -0.345 -31.166   1.284  1.00  0.00    -0.002 A 
ENDBRANCH  43  44
ENDBRANCH   5  43
ENDBRANCH   3   5
ENDBRANCH   1   2
BRANCH   1  51
ATOM     51  CB  ARG     6      -0.557 -35.586  -4.429  1.00  0.00     0.036 C 
BRANCH  51  52
ATOM     52  CG  ARG     6      -0.236 -37.017  -4.867  1.00  0.00     0.029 C 
BRANCH  52  53
ATOM     53  CD  ARG     6      -0.587 -37.213  -6.339  1.00  0.00     0.145 C 
BRANCH  53  54
ATOM     54  NE  ARG     6      -1.682 -38.184  -6.496  1.00  0.00    -0.083 NA
ATOM     55  CZ  ARG     6      -1.534 -39.487  -6.804  1.00  0.00     0.782 C 
ATOM     56  NH2 ARG     6      -2.602 -40.262  -7.005  1.00  0.00     0.063 N 
ATOM     57  NH1 ARG     6      -0.323 -39.997  -6.997  1.00  0.00     0.063 N 
ENDBRANCH  53  54
ENDBRANCH  52  53
ENDBRANCH  51  52
ENDBRANCH   1  51
BRANCH   1  58
ATOM     58  C   ARG     6       1.279 -34.052  -3.888  1.00  0.00     0.274 C 
ATOM     59  N   ASN     7       0.769 -32.841  -4.095  1.00  0.00    -0.228 NA
ATOM     60  O   ARG     6       2.436 -34.386  -4.146  1.00  0.00    -0.268 OA
BRANCH  59  61
ATOM     61  CA  ASN     7       1.566 -31.693  -4.575  1.00  0.00     0.196 C 
BRANCH  61  62
ATOM     62  C   ASN     7       2.340 -31.020  -3.425  1.00  0.00     0.275 C 
ATOM     63  N   PHE     8       1.697 -30.887  -2.255  1.00  0.00    -0.228 NA
ATOM     64  O   ASN     7       3.553 -31.007  -3.507  1.00  0.00    -0.268 OA
BRANCH  63  65
ATOM     65  CA  PHE     8       2.300 -30.346  -1.013  1.00  0.00     0.191 C 
BRANCH  65  66
ATOM     66  CB  PHE     8       3.331 -31.360  -0.497  1.00  0.00     0.060 C 
BRANCH  66  67
ATOM     67  CG  PHE     8       3.319 -31.559   1.030  1.00  0.00    -0.020 A 
ATOM     68  CD1 PHE     8       3.254 -30.456   1.871  1.00  0.00    -0.004 A 
ATOM     69  CE1 PHE     8       3.347 -30.630   3.252  1.00  0.00    -0.000 A 
ATOM     70  CZ  PHE     8       3.488 -31.904   3.777  1.00  0.00    -0.000 A 
ATOM     71  CE2 PHE     8       3.540 -33.011   2.937  1.00  0.00    -0.000 A 
ATOM     72  CD2 PHE     8       3.447 -32.838   1.556  1.00  0.00    -0.004 A 
ENDBRANCH  66  67
ENDBRANCH  65  66
BRANCH  65  73
ATOM     73  C   PHE     8       2.908 -28.931  -1.144  1.00  0.00     0.275 C 
ATOM     74  N   TRP     9       4.232 -28.866  -1.291  1.00  0.00    -0.228 NA
ATOM     75  O   PHE     8       2.243 -27.928  -0.874  1.00  0.00    -0.268 OA
BRANCH  74  76
ATOM     76  CA  TRP     9       4.933 -27.584  -1.552  1.00  0.00     0.191 C 
BRANCH  76  77
ATOM     77  CB  TRP     9       6.430 -27.767  -1.251  1.00  0.00     0.062 C 
BRANCH  77  78
ATOM     78  CG  TRP     9       6.838 -29.232  -1.094  1.00  0.00     0.001 A 
ATOM     79  CD1 TRP     9       6.853 -30.146  -2.060  1.00  0.00     0.095 A 
ATOM     80  NE1 TRP     9       6.967 -31.357  -1.529  1.00  0.00    -0.244 NA
ATOM     81  CE2 TRP     9       7.047 -31.257  -0.211  1.00  0.00     0.081 A 
ATOM     82  CD2 TRP     9       6.955 -29.913   0.114  1.00  0.00     0.015 A 
ATOM     83  CZ2 TRP     9       7.088 -32.207   0.809  1.00  0.00     0.019 A 
ATOM     84  CE3 TRP     9       6.887 -29.504   1.437  1.00  0.00     0.001 A 
ATOM     85  CZ3 TRP     9       6.914 -30.451   2.456  1.00  0.00     0.000 A 
ATOM     86  CH2 TRP     9       7.034 -31.802   2.135  1.00  0.00     0.002 A 
ENDBRANCH  77  78
ENDBRANCH  76  77
BRANCH  76  87
ATOM     87  C   TRP     9       4.703 -27.003  -2.965  1.00  0.00     0.275 C 
ATOM     88  O   TRP     9       4.638 -27.738  -3.946  1.00  0.00    -0.268 OA
ATOM     89  N   GLY    10       4.483 -25.691  -3.033  1.00  0.00    -0.226 NA
BRANCH  89  90
ATOM     90  CA  GLY    10       4.199 -24.952  -4.294  1.00  0.00     0.218 C 
BRANCH  90  91
ATOM     91  C   GLY    10       5.343 -24.887  -5.319  1.00  0.00     0.277 C 
ATOM     92  N   CYS    11       6.505 -24.447  -4.838  1.00  0.00    -0.228 NA
ATOM     93  O   GLY    10       5.122 -25.063  -6.511  1.00  0.00    -0.268 OA
BRANCH  92  94
ATOM     94  CA  CYS    11       7.772 -24.303  -5.589  1.00  0.00     0.198 C 
BRANCH  94  95
ATOM     95  C   CYS    11       8.500 -25.662  -5.563  1.00  0.00     0.275 C 
ATOM     96  O   CYS    11       8.480 -26.367  -6.566  1.00  0.00    -0.268 OA
ATOM     97  N   GLY    12       8.934 -26.067  -4.379  1.00  0.00    -0.225 NA
BRANCH  97  98
ATOM     98  CA  GLY    12       9.634 -27.345  -4.176  1.00  0.00     0.226 C 
BRANCH  98  99
ATOM     99  C   GLY    12      11.139 -27.042  -3.991  1.00  0.00     0.211 C 
ATOM    100  O1  GLY    12      11.938 -27.978  -4.244  1.00  0.00    -0.646 OA
ATOM    101  O2  GLY    12      11.460 -25.890  -3.643  1.00  0.00    -0.646 OA
ENDBRANCH  98  99
ENDBRANCH  97  98
ENDBRANCH  94  95
BRANCH  94 102
ATOM    102  CB  CYS    11       8.700 -23.326  -4.872  1.00  0.00     0.103 C 
ATOM    103  SG  CYS    11      10.226 -22.852  -5.773  1.00  0.00    -0.080 SA
ENDBRANCH  94 102
ENDBRANCH  92  94
ENDBRANCH  90  91
ENDBRANCH  89  90
ENDBRANCH  76  87
ENDBRANCH  74  76
ENDBRANCH  65  73
ENDBRANCH  63  65
ENDBRANCH  61  62
BRANCH  61 104
ATOM    104  CB  ASN     7       0.686 -30.674  -5.310  1.00  0.00     0.126 C 
BRANCH 104 105
ATOM    105  CG  ASN     7       1.450 -29.491  -5.934  1.00  0.00     0.276 C 
ATOM    106  ND2 ASN     7       2.206 -29.775  -6.970  1.00  0.00    -0.107 N 
ATOM    107  OD1 ASN     7       1.523 -28.368  -5.451  1.00  0.00    -0.269 OA
ENDBRANCH 104 105
ENDBRANCH  61 104
ENDBRANCH  59  61
ENDBRANCH   1  58
TORSDOF 42
ENDMDL
