MODEL 1
REMARK VINA RESULT:      -4.8      0.000      0.000
REMARK WARNING: 32 MAX_TORS EXCEEDED!!!
REMARK  42 active torsions:
REMARK  status: ('A' for Active; 'I' for Inactive)
REMARK    1  A    between atoms: CA_2  and  CB_3 
REMARK    2  A    between atoms: CA_2  and  C_11 
REMARK    3  A    between atoms: CB_3  and  CG_4 
REMARK       I    between atoms: C_11  and  N_13 
REMARK    4  A    between atoms: N_13  and  CA_14 
REMARK    5  A    between atoms: CA_14  and  CB_15 
REMARK    6  A    between atoms: CA_14  and  C_19 
REMARK    7  A    between atoms: CB_15  and  CG_16 
REMARK       I    between atoms: C_19  and  N_21 
REMARK    8  A    between atoms: CA_22  and  C_26 
REMARK       I    between atoms: C_26  and  N_28 
REMARK    9  A    between atoms: N_28  and  CA_29 
REMARK   10  A    between atoms: CA_29  and  C_35 
REMARK   11  A    between atoms: CA_29  and  CB_30 
REMARK   12  A    between atoms: CB_30  and  CG_31 
REMARK   13  A    between atoms: CG_31  and  CD_32 
REMARK       I    between atoms: C_35  and  N_37 
REMARK   14  A    between atoms: N_37  and  CA_38 
REMARK   15  A    between atoms: CA_38  and  CB_39 
REMARK   16  A    between atoms: CA_38  and  C_47 
REMARK   17  A    between atoms: CB_39  and  CG_40 
REMARK       I    between atoms: C_47  and  N_49 
REMARK   18  A    between atoms: N_49  and  CA_50 
REMARK   19  A    between atoms: CA_50  and  CB_51 
REMARK   20  A    between atoms: CA_50  and  C_58 
REMARK   21  A    between atoms: CB_51  and  CG_52 
REMARK   22  A    between atoms: CG_52  and  CD_53 
REMARK   23  A    between atoms: CD_53  and  NE_54 
REMARK       I    between atoms: C_58  and  N_60 
REMARK   24  A    between atoms: N_60  and  CA_61 
REMARK   25  A    between atoms: CA_61  and  C_66 
REMARK   26  A    between atoms: CA_61  and  CB_62 
REMARK   27  A    between atoms: CB_62  and  CG_63 
REMARK       I    between atoms: C_66  and  N_68 
REMARK   28  A    between atoms: N_68  and  CA_69 
REMARK   29  A    between atoms: CA_69  and  CB_70 
REMARK   30  A    between atoms: CA_69  and  C_77 
REMARK   31  A    between atoms: CB_70  and  CG_71 
REMARK       I    between atoms: C_77  and  N_79 
REMARK   32  A    between atoms: N_79  and  CA_80 
REMARK   33  A    between atoms: CA_80  and  CB_81 
REMARK   34  A    between atoms: CA_80  and  C_91 
REMARK   35  A    between atoms: CB_81  and  CG_82 
REMARK       I    between atoms: C_91  and  N_93 
REMARK   36  A    between atoms: N_93  and  CA_94 
REMARK   37  A    between atoms: CA_94  and  C_95 
REMARK       I    between atoms: C_95  and  N_97 
REMARK   38  A    between atoms: N_97  and  CA_98 
REMARK   39  A    between atoms: CA_98  and  C_101 
REMARK   40  A    between atoms: CA_98  and  CB_99 
REMARK       I    between atoms: C_101  and  N_103 
REMARK   41  A    between atoms: N_103  and  CA_104 
REMARK   42  A    between atoms: CA_104  and  C_105 
ROOT
ATOM      1  CA  ARG     6       1.838 -27.820   4.272  1.00  0.00     0.186 C 
ENDROOT
BRANCH   1   2
ATOM      2  N   ARG     6       0.359 -27.839   4.193  1.00  0.00    -0.229 NA
ATOM      3  C   TYR     5      -0.398 -26.838   4.660  1.00  0.00     0.275 C 
ATOM      4  O   TYR     5       0.087 -25.823   5.160  1.00  0.00    -0.268 OA
BRANCH   3   5
ATOM      5  CA  TYR     5      -1.917 -26.950   4.447  1.00  0.00     0.191 C 
BRANCH   5   6
ATOM      6  N   TYR     5      -2.496 -25.809   3.692  1.00  0.00    -0.228 NA
ATOM      7  C   GLU     4      -1.935 -25.305   2.580  1.00  0.00     0.274 C 
ATOM      8  O   GLU     4      -0.981 -25.833   2.024  1.00  0.00    -0.268 OA
BRANCH   7   9
ATOM      9  CA  GLU     4      -2.745 -24.216   1.848  1.00  0.00     0.187 C 
BRANCH   9  10
ATOM     10  CB  GLU     4      -3.219 -23.154   2.853  1.00  0.00     0.045 C 
BRANCH  10  11
ATOM     11  CG  GLU     4      -2.237 -21.996   3.139  1.00  0.00     0.100 C 
BRANCH  11  12
ATOM     12  CD  GLU     4      -2.821 -20.871   3.992  1.00  0.00     0.185 C 
ATOM     13  OE1 GLU     4      -3.577 -21.201   4.943  1.00  0.00    -0.647 OA
ATOM     14  OE2 GLU     4      -2.917 -19.751   3.453  1.00  0.00    -0.647 OA
ENDBRANCH  11  12
ENDBRANCH  10  11
ENDBRANCH   9  10
BRANCH   9  15
ATOM     15  N   GLU     4      -3.921 -24.747   1.133  1.00  0.00    -0.229 NA
ATOM     16  C   PRO     3      -4.620 -24.170   0.162  1.00  0.00     0.272 C 
ATOM     17  O   PRO     3      -4.174 -23.266  -0.547  1.00  0.00    -0.269 OA
BRANCH  16  18
ATOM     18  CA  PRO     3      -5.796 -24.990  -0.372  1.00  0.00     0.165 C 
ATOM     19  N   PRO     3      -7.112 -24.323  -0.280  1.00  0.00    -0.312 N 
ATOM     20  CD  PRO     3      -7.896 -24.593  -1.512  1.00  0.00     0.105 C 
ATOM     21  C   ASP     2      -7.565 -23.705   0.826  1.00  0.00     0.257 C 
ATOM     22  CG  PRO     3      -7.068 -25.646  -2.265  1.00  0.00     0.027 C 
ATOM     23  CB  PRO     3      -5.632 -25.344  -1.848  1.00  0.00     0.034 C 
ATOM     24  O   ASP     2      -6.979 -23.849   1.909  1.00  0.00    -0.270 OA
BRANCH  21  25
ATOM     25  CA  ASP     2      -8.994 -23.115   0.836  1.00  0.00     0.195 C 
BRANCH  25  26
ATOM     26  CB  ASP     2      -9.107 -21.580   0.647  1.00  0.00     0.132 C 
BRANCH  26  27
ATOM     27  CG  ASP     2      -8.890 -20.856   1.989  1.00  0.00     0.188 C 
ATOM     28  OD2 ASP     2      -9.818 -20.086   2.345  1.00  0.00    -0.647 OA
ATOM     29  OD1 ASP     2      -7.700 -20.610   2.311  1.00  0.00    -0.647 OA
ENDBRANCH  26  27
ENDBRANCH  25  26
BRANCH  25  30
ATOM     30  N   ASP     2      -9.672 -23.327   2.126  1.00  0.00    -0.228 NA
ATOM     31  C   TYR     1     -10.276 -24.422   2.524  1.00  0.00     0.289 C 
ATOM     32  O   TYR     1     -10.288 -25.528   1.973  1.00  0.00    -0.268 OA
BRANCH  31  33
ATOM     33  CA  TYR     1     -11.051 -24.208   3.820  1.00  0.00     0.385 C 
ATOM     34  N   TYR     1     -10.621 -22.923   4.396  1.00  0.00     0.626 N 
BRANCH  33  35
ATOM     35  CB  TYR     1     -12.537 -24.223   3.471  1.00  0.00     0.075 C 
BRANCH  35  36
ATOM     36  CG  TYR     1     -13.237 -25.530   3.877  1.00  0.00    -0.019 A 
ATOM     37  CD2 TYR     1     -12.768 -26.304   4.927  1.00  0.00    -0.002 A 
ATOM     38  CE2 TYR     1     -13.493 -27.404   5.360  1.00  0.00     0.027 A 
ATOM     39  CZ  TYR     1     -14.692 -27.722   4.722  1.00  0.00     0.131 A 
ATOM     40  CE1 TYR     1     -15.133 -26.969   3.649  1.00  0.00     0.027 A 
ATOM     41  OH  TYR     1     -15.505 -28.666   5.239  1.00  0.00    -0.190 OA
ATOM     42  CD1 TYR     1     -14.408 -25.870   3.216  1.00  0.00    -0.002 A 
ENDBRANCH  35  36
ENDBRANCH  33  35
ENDBRANCH  31  33
ENDBRANCH  25  30
ENDBRANCH  21  25
ENDBRANCH  16  18
ENDBRANCH   9  15
ENDBRANCH   7   9
ENDBRANCH   5   6
BRANCH   5  43
ATOM     43  CB  TYR     5      -2.278 -28.277   3.758  1.00  0.00     0.060 C 
BRANCH  43  44
ATOM     44  CG  TYR     5      -3.795 -28.437   3.559  1.00  0.00    -0.020 A 
ATOM     45  CD2 TYR     5      -4.619 -28.755   4.631  1.00  0.00    -0.002 A 
ATOM     46  CE2 TYR     5      -5.991 -28.891   4.443  1.00  0.00     0.027 A 
ATOM     47  CZ  TYR     5      -6.539 -28.708   3.183  1.00  0.00     0.131 A 
ATOM     48  CE1 TYR     5      -5.724 -28.372   2.108  1.00  0.00     0.027 A 
ATOM     49  OH  TYR     5      -7.845 -28.974   2.964  1.00  0.00    -0.190 OA
ATOM     50  CD1 TYR     5      -4.347 -28.246   2.297  1.00  0.00    -0.002 A 
ENDBRANCH  43  44
ENDBRANCH   5  43
ENDBRANCH   3   5
ENDBRANCH   1   2
BRANCH   1  51
ATOM     51  CB  ARG     6       2.417 -29.093   4.882  1.00  0.00     0.036 C 
BRANCH  51  52
ATOM     52  CG  ARG     6       1.353 -30.083   5.361  1.00  0.00     0.029 C 
BRANCH  52  53
ATOM     53  CD  ARG     6       1.791 -31.516   5.069  1.00  0.00     0.145 C 
BRANCH  53  54
ATOM     54  NE  ARG     6       2.251 -31.654   3.678  1.00  0.00    -0.083 NA
ATOM     55  CZ  ARG     6       3.303 -32.389   3.272  1.00  0.00     0.782 C 
ATOM     56  NH2 ARG     6       3.685 -32.378   1.993  1.00  0.00     0.063 N 
ATOM     57  NH1 ARG     6       4.027 -33.068   4.155  1.00  0.00     0.063 N 
ENDBRANCH  53  54
ENDBRANCH  52  53
ENDBRANCH  51  52
ENDBRANCH   1  51
BRANCH   1  58
ATOM     58  C   ARG     6       2.498 -27.652   2.898  1.00  0.00     0.274 C 
ATOM     59  N   ASN     7       2.581 -28.755   2.159  1.00  0.00    -0.228 NA
ATOM     60  O   ARG     6       2.909 -26.541   2.559  1.00  0.00    -0.268 OA
BRANCH  59  61
ATOM     61  CA  ASN     7       3.094 -28.772   0.774  1.00  0.00     0.196 C 
BRANCH  61  62
ATOM     62  C   ASN     7       2.298 -29.748  -0.114  1.00  0.00     0.275 C 
ATOM     63  N   PHE     8       2.863 -30.111  -1.275  1.00  0.00    -0.228 NA
ATOM     64  O   ASN     7       1.437 -30.414   0.428  1.00  0.00    -0.268 OA
BRANCH  63  65
ATOM     65  CA  PHE     8       2.295 -31.103  -2.221  1.00  0.00     0.191 C 
BRANCH  65  66
ATOM     66  CB  PHE     8       2.794 -30.762  -3.632  1.00  0.00     0.060 C 
BRANCH  66  67
ATOM     67  CG  PHE     8       3.111 -29.271  -3.852  1.00  0.00    -0.020 A 
ATOM     68  CD1 PHE     8       4.420 -28.820  -3.753  1.00  0.00    -0.004 A 
ATOM     69  CE1 PHE     8       4.694 -27.455  -3.850  1.00  0.00    -0.000 A 
ATOM     70  CZ  PHE     8       3.658 -26.560  -4.061  1.00  0.00    -0.000 A 
ATOM     71  CE2 PHE     8       2.347 -27.011  -4.174  1.00  0.00    -0.000 A 
ATOM     72  CD2 PHE     8       2.074 -28.375  -4.076  1.00  0.00    -0.004 A 
ENDBRANCH  66  67
ENDBRANCH  65  66
BRANCH  65  73
ATOM     73  C   PHE     8       2.570 -32.580  -1.860  1.00  0.00     0.275 C 
ATOM     74  N   TRP     9       1.501 -33.340  -1.613  1.00  0.00    -0.228 NA
ATOM     75  O   PHE     8       3.707 -32.961  -1.571  1.00  0.00    -0.268 OA
BRANCH  74  76
ATOM     76  CA  TRP     9       1.610 -34.800  -1.375  1.00  0.00     0.191 C 
BRANCH  76  77
ATOM     77  CB  TRP     9       1.277 -35.090   0.097  1.00  0.00     0.062 C 
BRANCH  77  78
ATOM     78  CG  TRP     9       2.478 -35.593   0.898  1.00  0.00     0.001 A 
ATOM     79  CD1 TRP     9       3.572 -36.155   0.395  1.00  0.00     0.095 A 
ATOM     80  NE1 TRP     9       4.267 -36.733   1.366  1.00  0.00    -0.244 NA
ATOM     81  CE2 TRP     9       3.652 -36.543   2.524  1.00  0.00     0.081 A 
ATOM     82  CD2 TRP     9       2.492 -35.828   2.269  1.00  0.00     0.015 A 
ATOM     83  CZ2 TRP     9       3.902 -37.005   3.816  1.00  0.00     0.019 A 
ATOM     84  CE3 TRP     9       1.574 -35.581   3.279  1.00  0.00     0.001 A 
ATOM     85  CZ3 TRP     9       1.815 -36.052   4.565  1.00  0.00     0.000 A 
ATOM     86  CH2 TRP     9       2.993 -36.749   4.831  1.00  0.00     0.002 A 
ENDBRANCH  77  78
ENDBRANCH  76  77
BRANCH  76  87
ATOM     87  C   TRP     9       0.765 -35.670  -2.333  1.00  0.00     0.275 C 
ATOM     88  O   TRP     9       1.187 -36.747  -2.744  1.00  0.00    -0.268 OA
ATOM     89  N   GLY    10      -0.466 -35.232  -2.594  1.00  0.00    -0.226 NA
BRANCH  89  90
ATOM     90  CA  GLY    10      -1.446 -35.948  -3.455  1.00  0.00     0.218 C 
BRANCH  90  91
ATOM     91  C   GLY    10      -2.653 -36.575  -2.739  1.00  0.00     0.277 C 
ATOM     92  N   CYS    11      -2.554 -37.883  -2.508  1.00  0.00    -0.228 NA
ATOM     93  O   GLY    10      -3.681 -35.929  -2.568  1.00  0.00    -0.268 OA
BRANCH  92  94
ATOM     94  CA  CYS    11      -3.550 -38.735  -1.820  1.00  0.00     0.198 C 
BRANCH  94  95
ATOM     95  C   CYS    11      -3.192 -38.774  -0.321  1.00  0.00     0.275 C 
ATOM     96  O   CYS    11      -3.888 -38.152   0.474  1.00  0.00    -0.268 OA
ATOM     97  N   GLY    12      -2.027 -39.325  -0.015  1.00  0.00    -0.225 NA
BRANCH  97  98
ATOM     98  CA  GLY    12      -1.526 -39.429   1.364  1.00  0.00     0.226 C 
BRANCH  98  99
ATOM     99  C   GLY    12      -0.116 -38.795   1.409  1.00  0.00     0.211 C 
ATOM    100  O1  GLY    12       0.440 -38.736   2.535  1.00  0.00    -0.646 OA
ATOM    101  O2  GLY    12       0.387 -38.422   0.334  1.00  0.00    -0.646 OA
ENDBRANCH  98  99
ENDBRANCH  97  98
ENDBRANCH  94  95
BRANCH  94 102
ATOM    102  CB  CYS    11      -3.436 -40.177  -2.309  1.00  0.00     0.103 C 
ATOM    103  SG  CYS    11      -4.511 -41.403  -1.468  1.00  0.00    -0.080 SA
ENDBRANCH  94 102
ENDBRANCH  92  94
ENDBRANCH  90  91
ENDBRANCH  89  90
ENDBRANCH  76  87
ENDBRANCH  74  76
ENDBRANCH  65  73
ENDBRANCH  63  65
ENDBRANCH  61  62
BRANCH  61 104
ATOM    104  CB  ASN     7       4.592 -29.099   0.738  1.00  0.00     0.126 C 
BRANCH 104 105
ATOM    105  CG  ASN     7       5.512 -27.895   0.466  1.00  0.00     0.276 C 
ATOM    106  ND2 ASN     7       4.990 -26.920  -0.242  1.00  0.00    -0.107 N 
ATOM    107  OD1 ASN     7       6.709 -27.853   0.719  1.00  0.00    -0.269 OA
ENDBRANCH 104 105
ENDBRANCH  61 104
ENDBRANCH  59  61
ENDBRANCH   1  58
TORSDOF 42
ENDMDL
MODEL 2
REMARK VINA RESULT:      -4.7     10.945     17.918
REMARK WARNING: 32 MAX_TORS EXCEEDED!!!
REMARK  42 active torsions:
REMARK  status: ('A' for Active; 'I' for Inactive)
REMARK    1  A    between atoms: CA_2  and  CB_3 
REMARK    2  A    between atoms: CA_2  and  C_11 
REMARK    3  A    between atoms: CB_3  and  CG_4 
REMARK       I    between atoms: C_11  and  N_13 
REMARK    4  A    between atoms: N_13  and  CA_14 
REMARK    5  A    between atoms: CA_14  and  CB_15 
REMARK    6  A    between atoms: CA_14  and  C_19 
REMARK    7  A    between atoms: CB_15  and  CG_16 
REMARK       I    between atoms: C_19  and  N_21 
REMARK    8  A    between atoms: CA_22  and  C_26 
REMARK       I    between atoms: C_26  and  N_28 
REMARK    9  A    between atoms: N_28  and  CA_29 
REMARK   10  A    between atoms: CA_29  and  C_35 
REMARK   11  A    between atoms: CA_29  and  CB_30 
REMARK   12  A    between atoms: CB_30  and  CG_31 
REMARK   13  A    between atoms: CG_31  and  CD_32 
REMARK       I    between atoms: C_35  and  N_37 
REMARK   14  A    between atoms: N_37  and  CA_38 
REMARK   15  A    between atoms: CA_38  and  CB_39 
REMARK   16  A    between atoms: CA_38  and  C_47 
REMARK   17  A    between atoms: CB_39  and  CG_40 
REMARK       I    between atoms: C_47  and  N_49 
REMARK   18  A    between atoms: N_49  and  CA_50 
REMARK   19  A    between atoms: CA_50  and  CB_51 
REMARK   20  A    between atoms: CA_50  and  C_58 
REMARK   21  A    between atoms: CB_51  and  CG_52 
REMARK   22  A    between atoms: CG_52  and  CD_53 
REMARK   23  A    between atoms: CD_53  and  NE_54 
REMARK       I    between atoms: C_58  and  N_60 
REMARK   24  A    between atoms: N_60  and  CA_61 
REMARK   25  A    between atoms: CA_61  and  C_66 
REMARK   26  A    between atoms: CA_61  and  CB_62 
REMARK   27  A    between atoms: CB_62  and  CG_63 
REMARK       I    between atoms: C_66  and  N_68 
REMARK   28  A    between atoms: N_68  and  CA_69 
REMARK   29  A    between atoms: CA_69  and  CB_70 
REMARK   30  A    between atoms: CA_69  and  C_77 
REMARK   31  A    between atoms: CB_70  and  CG_71 
REMARK       I    between atoms: C_77  and  N_79 
REMARK   32  A    between atoms: N_79  and  CA_80 
REMARK   33  A    between atoms: CA_80  and  CB_81 
REMARK   34  A    between atoms: CA_80  and  C_91 
REMARK   35  A    between atoms: CB_81  and  CG_82 
REMARK       I    between atoms: C_91  and  N_93 
REMARK   36  A    between atoms: N_93  and  CA_94 
REMARK   37  A    between atoms: CA_94  and  C_95 
REMARK       I    between atoms: C_95  and  N_97 
REMARK   38  A    between atoms: N_97  and  CA_98 
REMARK   39  A    between atoms: CA_98  and  C_101 
REMARK   40  A    between atoms: CA_98  and  CB_99 
REMARK       I    between atoms: C_101  and  N_103 
REMARK   41  A    between atoms: N_103  and  CA_104 
REMARK   42  A    between atoms: CA_104  and  C_105 
ROOT
ATOM      1  CA  ARG     6      11.760 -22.023   1.596  1.00  0.00     0.186 C 
ENDROOT
BRANCH   1   2
ATOM      2  N   ARG     6      11.636 -20.655   1.042  1.00  0.00    -0.229 NA
ATOM      3  C   TYR     5      12.499 -19.676   1.347  1.00  0.00     0.275 C 
ATOM      4  O   TYR     5      13.467 -19.858   2.085  1.00  0.00    -0.268 OA
BRANCH   3   5
ATOM      5  CA  TYR     5      12.300 -18.323   0.645  1.00  0.00     0.191 C 
BRANCH   5   6
ATOM      6  N   TYR     5      13.155 -18.147  -0.557  1.00  0.00    -0.228 NA
ATOM      7  C   GLU     4      13.872 -17.035  -0.791  1.00  0.00     0.274 C 
ATOM      8  O   GLU     4      13.988 -16.138   0.034  1.00  0.00    -0.268 OA
BRANCH   7   9
ATOM      9  CA  GLU     4      14.812 -17.081  -2.013  1.00  0.00     0.187 C 
BRANCH   9  10
ATOM     10  CB  GLU     4      14.993 -18.535  -2.478  1.00  0.00     0.045 C 
BRANCH  10  11
ATOM     11  CG  GLU     4      16.319 -19.220  -2.080  1.00  0.00     0.100 C 
BRANCH  11  12
ATOM     12  CD  GLU     4      16.291 -19.897  -0.710  1.00  0.00     0.185 C 
ATOM     13  OE1 GLU     4      15.398 -20.762  -0.511  1.00  0.00    -0.647 OA
ATOM     14  OE2 GLU     4      16.795 -19.263   0.239  1.00  0.00    -0.647 OA
ENDBRANCH  11  12
ENDBRANCH  10  11
ENDBRANCH   9  10
BRANCH   9  15
ATOM     15  N   GLU     4      16.144 -16.503  -1.745  1.00  0.00    -0.229 NA
ATOM     16  C   PRO     3      16.603 -15.307  -2.094  1.00  0.00     0.272 C 
ATOM     17  O   PRO     3      15.872 -14.355  -2.370  1.00  0.00    -0.269 OA
BRANCH  16  18
ATOM     18  CA  PRO     3      18.041 -15.009  -1.663  1.00  0.00     0.165 C 
ATOM     19  N   PRO     3      18.379 -15.436  -0.288  1.00  0.00    -0.312 N 
ATOM     20  CD  PRO     3      19.746 -16.015  -0.267  1.00  0.00     0.105 C 
ATOM     21  C   ASP     2      17.612 -15.181   0.787  1.00  0.00     0.257 C 
ATOM     22  CG  PRO     3      20.307 -15.716  -1.667  1.00  0.00     0.027 C 
ATOM     23  CB  PRO     3      19.068 -15.699  -2.558  1.00  0.00     0.034 C 
ATOM     24  O   ASP     2      16.669 -14.379   0.709  1.00  0.00    -0.270 OA
BRANCH  21  25
ATOM     25  CA  ASP     2      18.106 -15.600   2.190  1.00  0.00     0.195 C 
BRANCH  25  26
ATOM     26  CB  ASP     2      19.017 -16.853   2.254  1.00  0.00     0.132 C 
BRANCH  26  27
ATOM     27  CG  ASP     2      19.958 -16.772   3.471  1.00  0.00     0.188 C 
ATOM     28  OD2 ASP     2      20.929 -15.983   3.353  1.00  0.00    -0.647 OA
ATOM     29  OD1 ASP     2      20.062 -17.809   4.173  1.00  0.00    -0.647 OA
ENDBRANCH  26  27
ENDBRANCH  25  26
BRANCH  25  30
ATOM     30  N   ASP     2      16.994 -15.969   3.082  1.00  0.00    -0.228 NA
ATOM     31  C   TYR     1      16.518 -15.259   4.078  1.00  0.00     0.289 C 
ATOM     32  O   TYR     1      16.802 -14.098   4.389  1.00  0.00    -0.268 OA
BRANCH  31  33
ATOM     33  CA  TYR     1      15.515 -16.048   4.914  1.00  0.00     0.385 C 
ATOM     34  N   TYR     1      16.152 -16.366   6.203  1.00  0.00     0.626 N 
BRANCH  33  35
ATOM     35  CB  TYR     1      14.272 -15.176   5.076  1.00  0.00     0.075 C 
BRANCH  35  36
ATOM     36  CG  TYR     1      12.974 -15.993   5.178  1.00  0.00    -0.019 A 
ATOM     37  CD2 TYR     1      11.828 -15.460   5.747  1.00  0.00    -0.002 A 
ATOM     38  CE2 TYR     1      10.635 -16.166   5.704  1.00  0.00     0.027 A 
ATOM     39  CZ  TYR     1      10.607 -17.417   5.089  1.00  0.00     0.131 A 
ATOM     40  CE1 TYR     1      11.764 -17.960   4.559  1.00  0.00     0.027 A 
ATOM     41  OH  TYR     1       9.431 -18.038   4.868  1.00  0.00    -0.190 OA
ATOM     42  CD1 TYR     1      12.956 -17.254   4.602  1.00  0.00    -0.002 A 
ENDBRANCH  35  36
ENDBRANCH  33  35
ENDBRANCH  31  33
ENDBRANCH  25  30
ENDBRANCH  21  25
ENDBRANCH  16  18
ENDBRANCH   9  15
ENDBRANCH   7   9
ENDBRANCH   5   6
BRANCH   5  43
ATOM     43  CB  TYR     5      10.822 -18.107   0.276  1.00  0.00     0.060 C 
BRANCH  43  44
ATOM     44  CG  TYR     5      10.166 -17.001   1.120  1.00  0.00    -0.020 A 
ATOM     45  CD2 TYR     5      10.910 -15.918   1.569  1.00  0.00    -0.002 A 
ATOM     46  CE2 TYR     5      10.306 -14.919   2.325  1.00  0.00     0.027 A 
ATOM     47  CZ  TYR     5       8.957 -15.002   2.633  1.00  0.00     0.131 A 
ATOM     48  CE1 TYR     5       8.200 -16.074   2.172  1.00  0.00     0.027 A 
ATOM     49  OH  TYR     5       8.396 -14.113   3.480  1.00  0.00    -0.190 OA
ATOM     50  CD1 TYR     5       8.810 -17.079   1.422  1.00  0.00    -0.002 A 
ENDBRANCH  43  44
ENDBRANCH   5  43
ENDBRANCH   3   5
ENDBRANCH   1   2
BRANCH   1  51
ATOM     51  CB  ARG     6      10.409 -22.669   1.888  1.00  0.00     0.036 C 
BRANCH  51  52
ATOM     52  CG  ARG     6       9.552 -22.894   0.640  1.00  0.00     0.029 C 
BRANCH  52  53
ATOM     53  CD  ARG     6       8.671 -24.127   0.815  1.00  0.00     0.145 C 
BRANCH  53  54
ATOM     54  NE  ARG     6       9.084 -25.204  -0.101  1.00  0.00    -0.083 NA
ATOM     55  CZ  ARG     6       8.253 -26.068  -0.715  1.00  0.00     0.782 C 
ATOM     56  NH2 ARG     6       8.740 -27.062  -1.461  1.00  0.00     0.063 N 
ATOM     57  NH1 ARG     6       6.942 -25.994  -0.517  1.00  0.00     0.063 N 
ENDBRANCH  53  54
ENDBRANCH  52  53
ENDBRANCH  51  52
ENDBRANCH   1  51
BRANCH   1  58
ATOM     58  C   ARG     6      12.506 -22.974   0.651  1.00  0.00     0.274 C 
ATOM     59  N   ASN     7      12.910 -24.121   1.188  1.00  0.00    -0.228 NA
ATOM     60  O   ARG     6      12.691 -22.636  -0.519  1.00  0.00    -0.268 OA
BRANCH  59  61
ATOM     61  CA  ASN     7      13.556 -25.201   0.413  1.00  0.00     0.196 C 
BRANCH  61  62
ATOM     62  C   ASN     7      12.578 -26.357   0.127  1.00  0.00     0.275 C 
ATOM     63  N   PHE     8      11.981 -26.923   1.187  1.00  0.00    -0.228 NA
ATOM     64  O   ASN     7      12.118 -26.429  -0.996  1.00  0.00    -0.268 OA
BRANCH  63  65
ATOM     65  CA  PHE     8      10.950 -27.986   1.111  1.00  0.00     0.191 C 
BRANCH  65  66
ATOM     66  CB  PHE     8      11.655 -29.347   1.195  1.00  0.00     0.060 C 
BRANCH  66  67
ATOM     67  CG  PHE     8      11.814 -30.066  -0.158  1.00  0.00    -0.020 A 
ATOM     68  CD1 PHE     8      13.038 -30.048  -0.811  1.00  0.00    -0.004 A 
ATOM     69  CE1 PHE     8      13.155 -30.610  -2.082  1.00  0.00    -0.000 A 
ATOM     70  CZ  PHE     8      12.051 -31.198  -2.678  1.00  0.00    -0.000 A 
ATOM     71  CE2 PHE     8      10.826 -31.230  -2.019  1.00  0.00    -0.000 A 
ATOM     72  CD2 PHE     8      10.710 -30.667  -0.748  1.00  0.00    -0.004 A 
ENDBRANCH  66  67
ENDBRANCH  65  66
BRANCH  65  73
ATOM     73  C   PHE     8       9.812 -27.867   2.151  1.00  0.00     0.275 C 
ATOM     74  N   TRP     9       8.727 -28.611   1.931  1.00  0.00    -0.228 NA
ATOM     75  O   PHE     8       9.807 -26.956   2.983  1.00  0.00    -0.268 OA
BRANCH  74  76
ATOM     76  CA  TRP     9       7.614 -28.689   2.909  1.00  0.00     0.191 C 
BRANCH  76  77
ATOM     77  CB  TRP     9       6.452 -27.815   2.408  1.00  0.00     0.062 C 
BRANCH  77  78
ATOM     78  CG  TRP     9       5.797 -26.991   3.516  1.00  0.00     0.001 A 
ATOM     79  CD1 TRP     9       6.313 -26.749   4.718  1.00  0.00     0.095 A 
ATOM     80  NE1 TRP     9       5.373 -26.264   5.519  1.00  0.00    -0.244 NA
ATOM     81  CE2 TRP     9       4.233 -26.161   4.853  1.00  0.00     0.081 A 
ATOM     82  CD2 TRP     9       4.455 -26.629   3.568  1.00  0.00     0.015 A 
ATOM     83  CZ2 TRP     9       2.941 -25.801   5.238  1.00  0.00     0.019 A 
ATOM     84  CE3 TRP     9       3.408 -26.758   2.668  1.00  0.00     0.001 A 
ATOM     85  CZ3 TRP     9       2.117 -26.413   3.054  1.00  0.00     0.000 A 
ATOM     86  CH2 TRP     9       1.893 -25.916   4.336  1.00  0.00     0.002 A 
ENDBRANCH  77  78
ENDBRANCH  76  77
BRANCH  76  87
ATOM     87  C   TRP     9       7.147 -30.125   3.238  1.00  0.00     0.275 C 
ATOM     88  O   TRP     9       7.814 -30.853   3.967  1.00  0.00    -0.268 OA
ATOM     89  N   GLY    10       5.950 -30.476   2.770  1.00  0.00    -0.226 NA
BRANCH  89  90
ATOM     90  CA  GLY    10       5.309 -31.797   3.014  1.00  0.00     0.218 C 
BRANCH  90  91
ATOM     91  C   GLY    10       4.090 -32.136   2.141  1.00  0.00     0.277 C 
ATOM     92  N   CYS    11       3.046 -31.322   2.291  1.00  0.00    -0.228 NA
ATOM     93  O   GLY    10       4.053 -33.180   1.500  1.00  0.00    -0.268 OA
BRANCH  92  94
ATOM     94  CA  CYS    11       1.757 -31.398   1.566  1.00  0.00     0.198 C 
BRANCH  94  95
ATOM     95  C   CYS    11       2.007 -30.983   0.103  1.00  0.00     0.275 C 
ATOM     96  O   CYS    11       1.967 -31.839  -0.774  1.00  0.00    -0.268 OA
ATOM     97  N   GLY    12       2.447 -29.747  -0.085  1.00  0.00    -0.225 NA
BRANCH  97  98
ATOM     98  CA  GLY    12       2.750 -29.197  -1.416  1.00  0.00     0.226 C 
BRANCH  98  99
ATOM     99  C   GLY    12       4.262 -29.385  -1.677  1.00  0.00     0.211 C 
ATOM    100  O1  GLY    12       5.047 -28.872  -0.840  1.00  0.00    -0.646 OA
ATOM    101  O2  GLY    12       4.601 -30.056  -2.669  1.00  0.00    -0.646 OA
ENDBRANCH  98  99
ENDBRANCH  97  98
ENDBRANCH  94  95
BRANCH  94 102
ATOM    102  CB  CYS    11       0.778 -30.368   2.125  1.00  0.00     0.103 C 
ATOM    103  SG  CYS    11       0.962 -29.961   3.904  1.00  0.00    -0.080 SA
ENDBRANCH  94 102
ENDBRANCH  92  94
ENDBRANCH  90  91
ENDBRANCH  89  90
ENDBRANCH  76  87
ENDBRANCH  74  76
ENDBRANCH  65  73
ENDBRANCH  63  65
ENDBRANCH  61  62
BRANCH  61 104
ATOM    104  CB  ASN     7      14.817 -25.715   1.119  1.00  0.00     0.126 C 
BRANCH 104 105
ATOM    105  CG  ASN     7      15.529 -26.879   0.405  1.00  0.00     0.276 C 
ATOM    106  ND2 ASN     7      15.655 -27.989   1.097  1.00  0.00    -0.107 N 
ATOM    107  OD1 ASN     7      16.109 -26.795  -0.670  1.00  0.00    -0.269 OA
ENDBRANCH 104 105
ENDBRANCH  61 104
ENDBRANCH  59  61
ENDBRANCH   1  58
TORSDOF 42
ENDMDL
MODEL 3
REMARK VINA RESULT:      -4.6     10.171     17.714
REMARK WARNING: 32 MAX_TORS EXCEEDED!!!
REMARK  42 active torsions:
REMARK  status: ('A' for Active; 'I' for Inactive)
REMARK    1  A    between atoms: CA_2  and  CB_3 
REMARK    2  A    between atoms: CA_2  and  C_11 
REMARK    3  A    between atoms: CB_3  and  CG_4 
REMARK       I    between atoms: C_11  and  N_13 
REMARK    4  A    between atoms: N_13  and  CA_14 
REMARK    5  A    between atoms: CA_14  and  CB_15 
REMARK    6  A    between atoms: CA_14  and  C_19 
REMARK    7  A    between atoms: CB_15  and  CG_16 
REMARK       I    between atoms: C_19  and  N_21 
REMARK    8  A    between atoms: CA_22  and  C_26 
REMARK       I    between atoms: C_26  and  N_28 
REMARK    9  A    between atoms: N_28  and  CA_29 
REMARK   10  A    between atoms: CA_29  and  C_35 
REMARK   11  A    between atoms: CA_29  and  CB_30 
REMARK   12  A    between atoms: CB_30  and  CG_31 
REMARK   13  A    between atoms: CG_31  and  CD_32 
REMARK       I    between atoms: C_35  and  N_37 
REMARK   14  A    between atoms: N_37  and  CA_38 
REMARK   15  A    between atoms: CA_38  and  CB_39 
REMARK   16  A    between atoms: CA_38  and  C_47 
REMARK   17  A    between atoms: CB_39  and  CG_40 
REMARK       I    between atoms: C_47  and  N_49 
REMARK   18  A    between atoms: N_49  and  CA_50 
REMARK   19  A    between atoms: CA_50  and  CB_51 
REMARK   20  A    between atoms: CA_50  and  C_58 
REMARK   21  A    between atoms: CB_51  and  CG_52 
REMARK   22  A    between atoms: CG_52  and  CD_53 
REMARK   23  A    between atoms: CD_53  and  NE_54 
REMARK       I    between atoms: C_58  and  N_60 
REMARK   24  A    between atoms: N_60  and  CA_61 
REMARK   25  A    between atoms: CA_61  and  C_66 
REMARK   26  A    between atoms: CA_61  and  CB_62 
REMARK   27  A    between atoms: CB_62  and  CG_63 
REMARK       I    between atoms: C_66  and  N_68 
REMARK   28  A    between atoms: N_68  and  CA_69 
REMARK   29  A    between atoms: CA_69  and  CB_70 
REMARK   30  A    between atoms: CA_69  and  C_77 
REMARK   31  A    between atoms: CB_70  and  CG_71 
REMARK       I    between atoms: C_77  and  N_79 
REMARK   32  A    between atoms: N_79  and  CA_80 
REMARK   33  A    between atoms: CA_80  and  CB_81 
REMARK   34  A    between atoms: CA_80  and  C_91 
REMARK   35  A    between atoms: CB_81  and  CG_82 
REMARK       I    between atoms: C_91  and  N_93 
REMARK   36  A    between atoms: N_93  and  CA_94 
REMARK   37  A    between atoms: CA_94  and  C_95 
REMARK       I    between atoms: C_95  and  N_97 
REMARK   38  A    between atoms: N_97  and  CA_98 
REMARK   39  A    between atoms: CA_98  and  C_101 
REMARK   40  A    between atoms: CA_98  and  CB_99 
REMARK       I    between atoms: C_101  and  N_103 
REMARK   41  A    between atoms: N_103  and  CA_104 
REMARK   42  A    between atoms: CA_104  and  C_105 
ROOT
ATOM      1  CA  ARG     6      10.259 -23.053   1.091  1.00  0.00     0.186 C 
ENDROOT
BRANCH   1   2
ATOM      2  N   ARG     6      10.459 -21.587   1.008  1.00  0.00    -0.229 NA
ATOM      3  C   TYR     5      11.128 -21.010   0.002  1.00  0.00     0.275 C 
ATOM      4  O   TYR     5      11.597 -21.657  -0.935  1.00  0.00    -0.268 OA
BRANCH   3   5
ATOM      5  CA  TYR     5      11.198 -19.474  -0.003  1.00  0.00     0.191 C 
BRANCH   5   6
ATOM      6  N   TYR     5      11.864 -18.914  -1.207  1.00  0.00    -0.228 NA
ATOM      7  C   GLU     4      13.149 -18.523  -1.221  1.00  0.00     0.274 C 
ATOM      8  O   GLU     4      13.911 -18.727  -0.284  1.00  0.00    -0.268 OA
BRANCH   7   9
ATOM      9  CA  GLU     4      13.713 -18.100  -2.592  1.00  0.00     0.187 C 
BRANCH   9  10
ATOM     10  CB  GLU     4      13.568 -19.255  -3.595  1.00  0.00     0.045 C 
BRANCH  10  11
ATOM     11  CG  GLU     4      14.789 -20.190  -3.742  1.00  0.00     0.100 C 
BRANCH  11  12
ATOM     12  CD  GLU     4      14.694 -21.481  -2.929  1.00  0.00     0.185 C 
ATOM     13  OE1 GLU     4      13.894 -22.363  -3.337  1.00  0.00    -0.647 OA
ATOM     14  OE2 GLU     4      15.015 -21.410  -1.726  1.00  0.00    -0.647 OA
ENDBRANCH  11  12
ENDBRANCH  10  11
ENDBRANCH   9  10
BRANCH   9  15
ATOM     15  N   GLU     4      15.132 -17.698  -2.539  1.00  0.00    -0.229 NA
ATOM     16  C   PRO     3      15.785 -16.882  -3.359  1.00  0.00     0.272 C 
ATOM     17  O   PRO     3      15.223 -16.047  -4.070  1.00  0.00    -0.269 OA
BRANCH  16  18
ATOM     18  CA  PRO     3      17.263 -16.670  -3.029  1.00  0.00     0.165 C 
ATOM     19  N   PRO     3      17.544 -16.345  -1.615  1.00  0.00    -0.312 N 
ATOM     20  CD  PRO     3      18.767 -17.062  -1.171  1.00  0.00     0.105 C 
ATOM     21  C   ASP     2      16.873 -15.416  -0.910  1.00  0.00     0.257 C 
ATOM     22  CG  PRO     3      19.339 -17.672  -2.460  1.00  0.00     0.027 C 
ATOM     23  CB  PRO     3      18.106 -17.909  -3.328  1.00  0.00     0.034 C 
ATOM     24  O   ASP     2      16.110 -14.624  -1.484  1.00  0.00    -0.270 OA
BRANCH  21  25
ATOM     25  CA  ASP     2      17.310 -15.098   0.538  1.00  0.00     0.195 C 
BRANCH  25  26
ATOM     26  CB  ASP     2      18.830 -15.175   0.832  1.00  0.00     0.132 C 
BRANCH  26  27
ATOM     27  CG  ASP     2      19.479 -13.787   0.677  1.00  0.00     0.188 C 
ATOM     28  OD2 ASP     2      19.922 -13.521  -0.470  1.00  0.00    -0.647 OA
ATOM     29  OD1 ASP     2      20.027 -13.303   1.698  1.00  0.00    -0.647 OA
ENDBRANCH  26  27
ENDBRANCH  25  26
BRANCH  25  30
ATOM     30  N   ASP     2      16.749 -16.054   1.508  1.00  0.00    -0.228 NA
ATOM     31  C   TYR     1      15.480 -16.224   1.798  1.00  0.00     0.289 C 
ATOM     32  O   TYR     1      14.498 -15.729   1.236  1.00  0.00    -0.268 OA
BRANCH  31  33
ATOM     33  CA  TYR     1      15.287 -17.141   3.002  1.00  0.00     0.385 C 
ATOM     34  N   TYR     1      16.620 -17.561   3.466  1.00  0.00     0.626 N 
BRANCH  33  35
ATOM     35  CB  TYR     1      14.522 -16.350   4.060  1.00  0.00     0.075 C 
BRANCH  35  36
ATOM     36  CG  TYR     1      13.101 -16.884   4.298  1.00  0.00    -0.019 A 
ATOM     37  CD2 TYR     1      12.783 -18.215   4.078  1.00  0.00    -0.002 A 
ATOM     38  CE2 TYR     1      11.532 -18.700   4.429  1.00  0.00     0.027 A 
ATOM     39  CZ  TYR     1      10.601 -17.832   4.998  1.00  0.00     0.131 A 
ATOM     40  CE1 TYR     1      10.912 -16.496   5.178  1.00  0.00     0.027 A 
ATOM     41  OH  TYR     1       9.454 -18.314   5.518  1.00  0.00    -0.190 OA
ATOM     42  CD1 TYR     1      12.162 -16.011   4.827  1.00  0.00    -0.002 A 
ENDBRANCH  35  36
ENDBRANCH  33  35
ENDBRANCH  31  33
ENDBRANCH  25  30
ENDBRANCH  21  25
ENDBRANCH  16  18
ENDBRANCH   9  15
ENDBRANCH   7   9
ENDBRANCH   5   6
BRANCH   5  43
ATOM     43  CB  TYR     5       9.797 -18.860   0.159  1.00  0.00     0.060 C 
BRANCH  43  44
ATOM     44  CG  TYR     5       9.853 -17.368   0.528  1.00  0.00    -0.020 A 
ATOM     45  CD2 TYR     5       8.774 -16.534   0.266  1.00  0.00    -0.002 A 
ATOM     46  CE2 TYR     5       8.831 -15.187   0.611  1.00  0.00     0.027 A 
ATOM     47  CZ  TYR     5       9.967 -14.674   1.217  1.00  0.00     0.131 A 
ATOM     48  CE1 TYR     5      11.045 -15.506   1.499  1.00  0.00     0.027 A 
ATOM     49  OH  TYR     5      10.086 -13.345   1.427  1.00  0.00    -0.190 OA
ATOM     50  CD1 TYR     5      10.989 -16.854   1.144  1.00  0.00    -0.002 A 
ENDBRANCH  43  44
ENDBRANCH   5  43
ENDBRANCH   3   5
ENDBRANCH   1   2
BRANCH   1  51
ATOM     51  CB  ARG     6      10.504 -23.607   2.491  1.00  0.00     0.036 C 
BRANCH  51  52
ATOM     52  CG  ARG     6      11.621 -24.652   2.552  1.00  0.00     0.029 C 
BRANCH  52  53
ATOM     53  CD  ARG     6      12.769 -24.258   1.628  1.00  0.00     0.145 C 
BRANCH  53  54
ATOM     54  NE  ARG     6      13.687 -25.389   1.414  1.00  0.00    -0.083 NA
ATOM     55  CZ  ARG     6      14.955 -25.294   0.971  1.00  0.00     0.782 C 
ATOM     56  NH2 ARG     6      15.674 -26.392   0.732  1.00  0.00     0.063 N 
ATOM     57  NH1 ARG     6      15.477 -24.107   0.684  1.00  0.00     0.063 N 
ENDBRANCH  53  54
ENDBRANCH  52  53
ENDBRANCH  51  52
ENDBRANCH   1  51
BRANCH   1  58
ATOM     58  C   ARG     6       8.839 -23.476   0.694  1.00  0.00     0.274 C 
ATOM     59  N   ASN     7       8.654 -24.781   0.517  1.00  0.00    -0.228 NA
ATOM     60  O   ARG     6       7.971 -22.613   0.560  1.00  0.00    -0.268 OA
BRANCH  59  61
ATOM     61  CA  ASN     7       7.337 -25.385   0.229  1.00  0.00     0.196 C 
BRANCH  61  62
ATOM     62  C   ASN     7       6.873 -26.306   1.374  1.00  0.00     0.275 C 
ATOM     63  N   PHE     8       5.571 -26.626   1.408  1.00  0.00    -0.228 NA
ATOM     64  O   ASN     7       7.724 -26.981   1.922  1.00  0.00    -0.268 OA
BRANCH  63  65
ATOM     65  CA  PHE     8       4.952 -27.563   2.376  1.00  0.00     0.191 C 
BRANCH  65  66
ATOM     66  CB  PHE     8       5.066 -26.950   3.779  1.00  0.00     0.060 C 
BRANCH  66  67
ATOM     67  CG  PHE     8       5.995 -27.721   4.736  1.00  0.00    -0.020 A 
ATOM     68  CD1 PHE     8       6.930 -27.033   5.497  1.00  0.00    -0.004 A 
ATOM     69  CE1 PHE     8       7.838 -27.739   6.286  1.00  0.00    -0.000 A 
ATOM     70  CZ  PHE     8       7.791 -29.124   6.317  1.00  0.00    -0.000 A 
ATOM     71  CE2 PHE     8       6.846 -29.815   5.565  1.00  0.00    -0.000 A 
ATOM     72  CD2 PHE     8       5.938 -29.108   4.776  1.00  0.00    -0.004 A 
ENDBRANCH  66  67
ENDBRANCH  65  66
BRANCH  65  73
ATOM     73  C   PHE     8       3.498 -27.973   2.049  1.00  0.00     0.275 C 
ATOM     74  N   TRP     9       2.645 -28.004   3.075  1.00  0.00    -0.228 NA
ATOM     75  O   PHE     8       3.213 -28.484   0.963  1.00  0.00    -0.268 OA
BRANCH  74  76
ATOM     76  CA  TRP     9       1.196 -28.260   2.886  1.00  0.00     0.191 C 
BRANCH  76  77
ATOM     77  CB  TRP     9       0.890 -29.708   3.304  1.00  0.00     0.062 C 
BRANCH  77  78
ATOM     78  CG  TRP     9       0.958 -30.697   2.141  1.00  0.00     0.001 A 
ATOM     79  CD1 TRP     9       0.081 -30.794   1.146  1.00  0.00     0.095 A 
ATOM     80  NE1 TRP     9       0.276 -31.929   0.486  1.00  0.00    -0.244 NA
ATOM     81  CE2 TRP     9       1.294 -32.585   1.024  1.00  0.00     0.081 A 
ATOM     82  CD2 TRP     9       1.753 -31.838   2.097  1.00  0.00     0.015 A 
ATOM     83  CZ2 TRP     9       1.847 -33.841   0.777  1.00  0.00     0.019 A 
ATOM     84  CE3 TRP     9       2.743 -32.331   2.935  1.00  0.00     0.001 A 
ATOM     85  CZ3 TRP     9       3.286 -33.589   2.698  1.00  0.00     0.000 A 
ATOM     86  CH2 TRP     9       2.846 -34.332   1.604  1.00  0.00     0.002 A 
ENDBRANCH  77  78
ENDBRANCH  76  77
BRANCH  76  87
ATOM     87  C   TRP     9       0.268 -27.252   3.602  1.00  0.00     0.275 C 
ATOM     88  O   TRP     9      -0.201 -27.504   4.708  1.00  0.00    -0.268 OA
ATOM     89  N   GLY    10       0.099 -26.077   2.998  1.00  0.00    -0.226 NA
BRANCH  89  90
ATOM     90  CA  GLY    10      -0.720 -24.962   3.548  1.00  0.00     0.218 C 
BRANCH  90  91
ATOM     91  C   GLY    10      -1.807 -24.392   2.622  1.00  0.00     0.277 C 
ATOM     92  N   CYS    11      -2.602 -25.302   2.061  1.00  0.00    -0.228 NA
ATOM     93  O   GLY    10      -1.801 -23.207   2.309  1.00  0.00    -0.268 OA
BRANCH  92  94
ATOM     94  CA  CYS    11      -3.739 -25.039   1.150  1.00  0.00     0.198 C 
BRANCH  94  95
ATOM     95  C   CYS    11      -4.779 -24.197   1.916  1.00  0.00     0.275 C 
ATOM     96  O   CYS    11      -5.406 -24.716   2.833  1.00  0.00    -0.268 OA
ATOM     97  N   GLY    12      -5.069 -23.014   1.394  1.00  0.00    -0.225 NA
BRANCH  97  98
ATOM     98  CA  GLY    12      -6.050 -22.094   1.989  1.00  0.00     0.226 C 
BRANCH  98  99
ATOM     99  C   GLY    12      -5.273 -20.984   2.735  1.00  0.00     0.211 C 
ATOM    100  O1  GLY    12      -4.835 -20.035   2.036  1.00  0.00    -0.646 OA
ATOM    101  O2  GLY    12      -5.163 -21.083   3.971  1.00  0.00    -0.646 OA
ENDBRANCH  98  99
ENDBRANCH  97  98
ENDBRANCH  94  95
BRANCH  94 102
ATOM    102  CB  CYS    11      -4.445 -26.346   0.798  1.00  0.00     0.103 C 
ATOM    103  SG  CYS    11      -5.826 -26.221  -0.402  1.00  0.00    -0.080 SA
ENDBRANCH  94 102
ENDBRANCH  92  94
ENDBRANCH  90  91
ENDBRANCH  89  90
ENDBRANCH  76  87
ENDBRANCH  74  76
ENDBRANCH  65  73
ENDBRANCH  63  65
ENDBRANCH  61  62
BRANCH  61 104
ATOM    104  CB  ASN     7       7.350 -26.140  -1.106  1.00  0.00     0.126 C 
BRANCH 104 105
ATOM    105  CG  ASN     7       8.588 -27.027  -1.336  1.00  0.00     0.276 C 
ATOM    106  ND2 ASN     7       8.405 -28.320  -1.196  1.00  0.00    -0.107 N 
ATOM    107  OD1 ASN     7       9.732 -26.613  -1.480  1.00  0.00    -0.269 OA
ENDBRANCH 104 105
ENDBRANCH  61 104
ENDBRANCH  59  61
ENDBRANCH   1  58
TORSDOF 42
ENDMDL
MODEL 4
REMARK VINA RESULT:      -4.6      7.467     15.406
REMARK WARNING: 32 MAX_TORS EXCEEDED!!!
REMARK  42 active torsions:
REMARK  status: ('A' for Active; 'I' for Inactive)
REMARK    1  A    between atoms: CA_2  and  CB_3 
REMARK    2  A    between atoms: CA_2  and  C_11 
REMARK    3  A    between atoms: CB_3  and  CG_4 
REMARK       I    between atoms: C_11  and  N_13 
REMARK    4  A    between atoms: N_13  and  CA_14 
REMARK    5  A    between atoms: CA_14  and  CB_15 
REMARK    6  A    between atoms: CA_14  and  C_19 
REMARK    7  A    between atoms: CB_15  and  CG_16 
REMARK       I    between atoms: C_19  and  N_21 
REMARK    8  A    between atoms: CA_22  and  C_26 
REMARK       I    between atoms: C_26  and  N_28 
REMARK    9  A    between atoms: N_28  and  CA_29 
REMARK   10  A    between atoms: CA_29  and  C_35 
REMARK   11  A    between atoms: CA_29  and  CB_30 
REMARK   12  A    between atoms: CB_30  and  CG_31 
REMARK   13  A    between atoms: CG_31  and  CD_32 
REMARK       I    between atoms: C_35  and  N_37 
REMARK   14  A    between atoms: N_37  and  CA_38 
REMARK   15  A    between atoms: CA_38  and  CB_39 
REMARK   16  A    between atoms: CA_38  and  C_47 
REMARK   17  A    between atoms: CB_39  and  CG_40 
REMARK       I    between atoms: C_47  and  N_49 
REMARK   18  A    between atoms: N_49  and  CA_50 
REMARK   19  A    between atoms: CA_50  and  CB_51 
REMARK   20  A    between atoms: CA_50  and  C_58 
REMARK   21  A    between atoms: CB_51  and  CG_52 
REMARK   22  A    between atoms: CG_52  and  CD_53 
REMARK   23  A    between atoms: CD_53  and  NE_54 
REMARK       I    between atoms: C_58  and  N_60 
REMARK   24  A    between atoms: N_60  and  CA_61 
REMARK   25  A    between atoms: CA_61  and  C_66 
REMARK   26  A    between atoms: CA_61  and  CB_62 
REMARK   27  A    between atoms: CB_62  and  CG_63 
REMARK       I    between atoms: C_66  and  N_68 
REMARK   28  A    between atoms: N_68  and  CA_69 
REMARK   29  A    between atoms: CA_69  and  CB_70 
REMARK   30  A    between atoms: CA_69  and  C_77 
REMARK   31  A    between atoms: CB_70  and  CG_71 
REMARK       I    between atoms: C_77  and  N_79 
REMARK   32  A    between atoms: N_79  and  CA_80 
REMARK   33  A    between atoms: CA_80  and  CB_81 
REMARK   34  A    between atoms: CA_80  and  C_91 
REMARK   35  A    between atoms: CB_81  and  CG_82 
REMARK       I    between atoms: C_91  and  N_93 
REMARK   36  A    between atoms: N_93  and  CA_94 
REMARK   37  A    between atoms: CA_94  and  C_95 
REMARK       I    between atoms: C_95  and  N_97 
REMARK   38  A    between atoms: N_97  and  CA_98 
REMARK   39  A    between atoms: CA_98  and  C_101 
REMARK   40  A    between atoms: CA_98  and  CB_99 
REMARK       I    between atoms: C_101  and  N_103 
REMARK   41  A    between atoms: N_103  and  CA_104 
REMARK   42  A    between atoms: CA_104  and  C_105 
ROOT
ATOM      1  CA  ARG     6       6.817 -27.145   0.594  1.00  0.00     0.186 C 
ENDROOT
BRANCH   1   2
ATOM      2  N   ARG     6       5.518 -27.221   1.302  1.00  0.00    -0.229 NA
ATOM      3  C   TYR     5       5.027 -28.372   1.780  1.00  0.00     0.275 C 
ATOM      4  O   TYR     5       5.638 -29.438   1.687  1.00  0.00    -0.268 OA
BRANCH   3   5
ATOM      5  CA  TYR     5       3.704 -28.300   2.560  1.00  0.00     0.191 C 
BRANCH   5   6
ATOM      6  N   TYR     5       3.080 -29.628   2.794  1.00  0.00    -0.228 NA
ATOM      7  C   GLU     4       2.065 -30.103   2.052  1.00  0.00     0.274 C 
ATOM      8  O   GLU     4       1.668 -29.541   1.040  1.00  0.00    -0.268 OA
BRANCH   7   9
ATOM      9  CA  GLU     4       1.636 -31.555   2.344  1.00  0.00     0.187 C 
BRANCH   9  10
ATOM     10  CB  GLU     4       2.458 -32.117   3.515  1.00  0.00     0.045 C 
BRANCH  10  11
ATOM     11  CG  GLU     4       3.469 -33.232   3.166  1.00  0.00     0.100 C 
BRANCH  11  12
ATOM     12  CD  GLU     4       4.879 -32.729   2.859  1.00  0.00     0.185 C 
ATOM     13  OE1 GLU     4       5.360 -33.010   1.730  1.00  0.00    -0.647 OA
ATOM     14  OE2 GLU     4       5.621 -32.508   3.837  1.00  0.00    -0.647 OA
ENDBRANCH  11  12
ENDBRANCH  10  11
ENDBRANCH   9  10
BRANCH   9  15
ATOM     15  N   GLU     4       1.793 -32.453   1.184  1.00  0.00    -0.229 NA
ATOM     16  C   PRO     3       0.853 -32.899   0.359  1.00  0.00     0.272 C 
ATOM     17  O   PRO     3      -0.235 -32.341   0.208  1.00  0.00    -0.269 OA
BRANCH  16  18
ATOM     18  CA  PRO     3       1.347 -33.826  -0.754  1.00  0.00     0.165 C 
ATOM     19  N   PRO     3       0.606 -35.099  -0.877  1.00  0.00    -0.312 N 
ATOM     20  CD  PRO     3       0.409 -35.426  -2.312  1.00  0.00     0.105 C 
ATOM     21  C   ASP     2       0.309 -35.899   0.164  1.00  0.00     0.257 C 
ATOM     22  CG  PRO     3       1.264 -34.389  -3.058  1.00  0.00     0.027 C 
ATOM     23  CB  PRO     3       1.253 -33.176  -2.133  1.00  0.00     0.034 C 
ATOM     24  O   ASP     2       0.835 -35.708   1.271  1.00  0.00    -0.270 OA
BRANCH  21  25
ATOM     25  CA  ASP     2      -0.394 -37.251  -0.093  1.00  0.00     0.195 C 
BRANCH  25  26
ATOM     26  CB  ASP     2      -1.930 -37.279   0.117  1.00  0.00     0.132 C 
BRANCH  26  27
ATOM     27  CG  ASP     2      -2.620 -38.009  -1.051  1.00  0.00     0.188 C 
ATOM     28  OD2 ASP     2      -2.618 -37.397  -2.149  1.00  0.00    -0.647 OA
ATOM     29  OD1 ASP     2      -3.565 -38.781  -0.754  1.00  0.00    -0.647 OA
ENDBRANCH  26  27
ENDBRANCH  25  26
BRANCH  25  30
ATOM     30  N   ASP     2       0.072 -38.301   0.828  1.00  0.00    -0.228 NA
ATOM     31  C   TYR     1       0.231 -39.575   0.550  1.00  0.00     0.289 C 
ATOM     32  O   TYR     1       0.158 -40.128  -0.552  1.00  0.00    -0.268 OA
BRANCH  31  33
ATOM     33  CA  TYR     1       0.517 -40.400   1.800  1.00  0.00     0.385 C 
ATOM     34  N   TYR     1       1.833 -39.991   2.320  1.00  0.00     0.626 N 
BRANCH  33  35
ATOM     35  CB  TYR     1      -0.612 -40.131   2.792  1.00  0.00     0.075 C 
BRANCH  35  36
ATOM     36  CG  TYR     1      -1.259 -41.417   3.329  1.00  0.00    -0.019 A 
ATOM     37  CD2 TYR     1      -1.596 -41.553   4.667  1.00  0.00    -0.002 A 
ATOM     38  CE2 TYR     1      -2.301 -42.666   5.100  1.00  0.00     0.027 A 
ATOM     39  CZ  TYR     1      -2.659 -43.646   4.175  1.00  0.00     0.131 A 
ATOM     40  CE1 TYR     1      -2.284 -43.524   2.849  1.00  0.00     0.027 A 
ATOM     41  OH  TYR     1      -3.500 -44.638   4.530  1.00  0.00    -0.190 OA
ATOM     42  CD1 TYR     1      -1.579 -42.411   2.416  1.00  0.00    -0.002 A 
ENDBRANCH  35  36
ENDBRANCH  33  35
ENDBRANCH  31  33
ENDBRANCH  25  30
ENDBRANCH  21  25
ENDBRANCH  16  18
ENDBRANCH   9  15
ENDBRANCH   7   9
ENDBRANCH   5   6
BRANCH   5  43
ATOM     43  CB  TYR     5       3.894 -27.564   3.897  1.00  0.00     0.060 C 
BRANCH  43  44
ATOM     44  CG  TYR     5       2.887 -26.415   4.079  1.00  0.00    -0.020 A 
ATOM     45  CD2 TYR     5       1.733 -26.358   3.309  1.00  0.00    -0.002 A 
ATOM     46  CE2 TYR     5       0.824 -25.319   3.486  1.00  0.00     0.027 A 
ATOM     47  CZ  TYR     5       1.070 -24.338   4.433  1.00  0.00     0.131 A 
ATOM     48  CE1 TYR     5       2.214 -24.397   5.221  1.00  0.00     0.027 A 
ATOM     49  OH  TYR     5       0.267 -23.254   4.515  1.00  0.00    -0.190 OA
ATOM     50  CD1 TYR     5       3.128 -25.435   5.035  1.00  0.00    -0.002 A 
ENDBRANCH  43  44
ENDBRANCH   5  43
ENDBRANCH   3   5
ENDBRANCH   1   2
BRANCH   1  51
ATOM     51  CB  ARG     6       6.710 -26.473  -0.771  1.00  0.00     0.036 C 
BRANCH  51  52
ATOM     52  CG  ARG     6       5.304 -26.526  -1.374  1.00  0.00     0.029 C 
BRANCH  52  53
ATOM     53  CD  ARG     6       5.233 -27.594  -2.462  1.00  0.00     0.145 C 
BRANCH  53  54
ATOM     54  NE  ARG     6       5.090 -28.936  -1.876  1.00  0.00    -0.083 NA
ATOM     55  CZ  ARG     6       3.934 -29.617  -1.756  1.00  0.00     0.782 C 
ATOM     56  NH2 ARG     6       3.903 -30.796  -1.131  1.00  0.00     0.063 N 
ATOM     57  NH1 ARG     6       2.794 -29.084  -2.182  1.00  0.00     0.063 N 
ENDBRANCH  53  54
ENDBRANCH  52  53
ENDBRANCH  51  52
ENDBRANCH   1  51
BRANCH   1  58
ATOM     58  C   ARG     6       7.872 -26.363   1.387  1.00  0.00     0.274 C 
ATOM     59  N   ASN     7       8.577 -25.476   0.690  1.00  0.00    -0.228 NA
ATOM     60  O   ARG     6       8.013 -26.592   2.589  1.00  0.00    -0.268 OA
BRANCH  59  61
ATOM     61  CA  ASN     7       9.567 -24.563   1.298  1.00  0.00     0.196 C 
BRANCH  61  62
ATOM     62  C   ASN     7       9.294 -23.095   0.917  1.00  0.00     0.275 C 
ATOM     63  N   PHE     8      10.356 -22.280   0.840  1.00  0.00    -0.228 NA
ATOM     64  O   ASN     7       8.246 -22.856   0.347  1.00  0.00    -0.268 OA
BRANCH  63  65
ATOM     65  CA  PHE     8      10.307 -20.862   0.407  1.00  0.00     0.191 C 
BRANCH  65  66
ATOM     66  CB  PHE     8      11.019 -20.010   1.468  1.00  0.00     0.060 C 
BRANCH  66  67
ATOM     67  CG  PHE     8      10.319 -18.676   1.787  1.00  0.00    -0.020 A 
ATOM     68  CD1 PHE     8       9.742 -17.935   0.765  1.00  0.00    -0.004 A 
ATOM     69  CE1 PHE     8       9.199 -16.680   1.038  1.00  0.00    -0.000 A 
ATOM     70  CZ  PHE     8       9.226 -16.186   2.332  1.00  0.00    -0.000 A 
ATOM     71  CE2 PHE     8       9.793 -16.932   3.360  1.00  0.00    -0.000 A 
ATOM     72  CD2 PHE     8      10.335 -18.187   3.087  1.00  0.00    -0.004 A 
ENDBRANCH  66  67
ENDBRANCH  65  66
BRANCH  65  73
ATOM     73  C   PHE     8      10.864 -20.593  -1.009  1.00  0.00     0.275 C 
ATOM     74  N   TRP     9      12.140 -20.210  -1.082  1.00  0.00    -0.228 NA
ATOM     75  O   PHE     8      10.109 -20.491  -1.978  1.00  0.00    -0.268 OA
BRANCH  74  76
ATOM     76  CA  TRP     9      12.838 -20.037  -2.380  1.00  0.00     0.191 C 
BRANCH  76  77
ATOM     77  CB  TRP     9      13.877 -18.913  -2.239  1.00  0.00     0.062 C 
BRANCH  77  78
ATOM     78  CG  TRP     9      14.455 -18.801  -0.828  1.00  0.00     0.001 A 
ATOM     79  CD1 TRP     9      15.178 -19.727  -0.205  1.00  0.00     0.095 A 
ATOM     80  NE1 TRP     9      15.262 -19.436   1.087  1.00  0.00    -0.244 NA
ATOM     81  CE2 TRP     9      14.614 -18.306   1.329  1.00  0.00     0.081 A 
ATOM     82  CD2 TRP     9      14.069 -17.871   0.131  1.00  0.00     0.015 A 
ATOM     83  CZ2 TRP     9      14.323 -17.615   2.505  1.00  0.00     0.019 A 
ATOM     84  CE3 TRP     9      13.229 -16.768   0.091  1.00  0.00     0.001 A 
ATOM     85  CZ3 TRP     9      12.927 -16.086   1.265  1.00  0.00     0.000 A 
ATOM     86  CH2 TRP     9      13.494 -16.504   2.468  1.00  0.00     0.002 A 
ENDBRANCH  77  78
ENDBRANCH  76  77
BRANCH  76  87
ATOM     87  C   TRP     9      13.469 -21.330  -2.945  1.00  0.00     0.275 C 
ATOM     88  O   TRP     9      13.865 -21.381  -4.106  1.00  0.00    -0.268 OA
ATOM     89  N   GLY    10      13.644 -22.326  -2.079  1.00  0.00    -0.226 NA
BRANCH  89  90
ATOM     90  CA  GLY    10      14.273 -23.632  -2.420  1.00  0.00     0.218 C 
BRANCH  90  91
ATOM     91  C   GLY    10      15.164 -24.263  -1.337  1.00  0.00     0.277 C 
ATOM     92  N   CYS    11      14.572 -25.198  -0.595  1.00  0.00    -0.228 NA
ATOM     93  O   GLY    10      16.270 -23.795  -1.089  1.00  0.00    -0.268 OA
BRANCH  92  94
ATOM     94  CA  CYS    11      15.194 -25.982   0.496  1.00  0.00     0.198 C 
BRANCH  94  95
ATOM     95  C   CYS    11      14.911 -27.474   0.234  1.00  0.00     0.275 C 
ATOM     96  O   CYS    11      14.320 -27.797  -0.791  1.00  0.00    -0.268 OA
ATOM     97  N   GLY    12      15.155 -28.298   1.242  1.00  0.00    -0.225 NA
BRANCH  97  98
ATOM     98  CA  GLY    12      14.925 -29.749   1.165  1.00  0.00     0.226 C 
BRANCH  98  99
ATOM     99  C   GLY    12      13.595 -30.061   1.891  1.00  0.00     0.211 C 
ATOM    100  O1  GLY    12      13.532 -29.753   3.108  1.00  0.00    -0.646 OA
ATOM    101  O2  GLY    12      12.672 -30.559   1.221  1.00  0.00    -0.646 OA
ENDBRANCH  98  99
ENDBRANCH  97  98
ENDBRANCH  94  95
BRANCH  94 102
ATOM    102  CB  CYS    11      14.515 -25.661   1.826  1.00  0.00     0.103 C 
ATOM    103  SG  CYS    11      15.459 -24.589   2.977  1.00  0.00    -0.080 SA
ENDBRANCH  94 102
ENDBRANCH  92  94
ENDBRANCH  90  91
ENDBRANCH  89  90
ENDBRANCH  76  87
ENDBRANCH  74  76
ENDBRANCH  65  73
ENDBRANCH  63  65
ENDBRANCH  61  62
BRANCH  61 104
ATOM    104  CB  ASN     7      10.999 -24.966   0.925  1.00  0.00     0.126 C 
BRANCH 104 105
ATOM    105  CG  ASN     7      11.134 -26.363   0.292  1.00  0.00     0.276 C 
ATOM    106  ND2 ASN     7      11.331 -27.358   1.126  1.00  0.00    -0.107 N 
ATOM    107  OD1 ASN     7      11.225 -26.585  -0.909  1.00  0.00    -0.269 OA
ENDBRANCH 104 105
ENDBRANCH  61 104
ENDBRANCH  59  61
ENDBRANCH   1  58
TORSDOF 42
ENDMDL
MODEL 5
REMARK VINA RESULT:      -4.5     10.154     18.264
REMARK WARNING: 32 MAX_TORS EXCEEDED!!!
REMARK  42 active torsions:
REMARK  status: ('A' for Active; 'I' for Inactive)
REMARK    1  A    between atoms: CA_2  and  CB_3 
REMARK    2  A    between atoms: CA_2  and  C_11 
REMARK    3  A    between atoms: CB_3  and  CG_4 
REMARK       I    between atoms: C_11  and  N_13 
REMARK    4  A    between atoms: N_13  and  CA_14 
REMARK    5  A    between atoms: CA_14  and  CB_15 
REMARK    6  A    between atoms: CA_14  and  C_19 
REMARK    7  A    between atoms: CB_15  and  CG_16 
REMARK       I    between atoms: C_19  and  N_21 
REMARK    8  A    between atoms: CA_22  and  C_26 
REMARK       I    between atoms: C_26  and  N_28 
REMARK    9  A    between atoms: N_28  and  CA_29 
REMARK   10  A    between atoms: CA_29  and  C_35 
REMARK   11  A    between atoms: CA_29  and  CB_30 
REMARK   12  A    between atoms: CB_30  and  CG_31 
REMARK   13  A    between atoms: CG_31  and  CD_32 
REMARK       I    between atoms: C_35  and  N_37 
REMARK   14  A    between atoms: N_37  and  CA_38 
REMARK   15  A    between atoms: CA_38  and  CB_39 
REMARK   16  A    between atoms: CA_38  and  C_47 
REMARK   17  A    between atoms: CB_39  and  CG_40 
REMARK       I    between atoms: C_47  and  N_49 
REMARK   18  A    between atoms: N_49  and  CA_50 
REMARK   19  A    between atoms: CA_50  and  CB_51 
REMARK   20  A    between atoms: CA_50  and  C_58 
REMARK   21  A    between atoms: CB_51  and  CG_52 
REMARK   22  A    between atoms: CG_52  and  CD_53 
REMARK   23  A    between atoms: CD_53  and  NE_54 
REMARK       I    between atoms: C_58  and  N_60 
REMARK   24  A    between atoms: N_60  and  CA_61 
REMARK   25  A    between atoms: CA_61  and  C_66 
REMARK   26  A    between atoms: CA_61  and  CB_62 
REMARK   27  A    between atoms: CB_62  and  CG_63 
REMARK       I    between atoms: C_66  and  N_68 
REMARK   28  A    between atoms: N_68  and  CA_69 
REMARK   29  A    between atoms: CA_69  and  CB_70 
REMARK   30  A    between atoms: CA_69  and  C_77 
REMARK   31  A    between atoms: CB_70  and  CG_71 
REMARK       I    between atoms: C_77  and  N_79 
REMARK   32  A    between atoms: N_79  and  CA_80 
REMARK   33  A    between atoms: CA_80  and  CB_81 
REMARK   34  A    between atoms: CA_80  and  C_91 
REMARK   35  A    between atoms: CB_81  and  CG_82 
REMARK       I    between atoms: C_91  and  N_93 
REMARK   36  A    between atoms: N_93  and  CA_94 
REMARK   37  A    between atoms: CA_94  and  C_95 
REMARK       I    between atoms: C_95  and  N_97 
REMARK   38  A    between atoms: N_97  and  CA_98 
REMARK   39  A    between atoms: CA_98  and  C_101 
REMARK   40  A    between atoms: CA_98  and  CB_99 
REMARK       I    between atoms: C_101  and  N_103 
REMARK   41  A    between atoms: N_103  and  CA_104 
REMARK   42  A    between atoms: CA_104  and  C_105 
ROOT
ATOM      1  CA  ARG     6      13.217 -25.119   2.749  1.00  0.00     0.186 C 
ENDROOT
BRANCH   1   2
ATOM      2  N   ARG     6      11.977 -25.645   2.131  1.00  0.00    -0.229 NA
ATOM      3  C   TYR     5      10.832 -25.770   2.814  1.00  0.00     0.275 C 
ATOM      4  O   TYR     5      10.727 -25.428   3.992  1.00  0.00    -0.268 OA
BRANCH   3   5
ATOM      5  CA  TYR     5       9.601 -26.259   2.034  1.00  0.00     0.191 C 
BRANCH   5   6
ATOM      6  N   TYR     5       8.427 -26.548   2.898  1.00  0.00    -0.228 NA
ATOM      7  C   GLU     4       8.273 -27.704   3.565  1.00  0.00     0.274 C 
ATOM      8  O   GLU     4       9.153 -28.554   3.625  1.00  0.00    -0.268 OA
BRANCH   7   9
ATOM      9  CA  GLU     4       7.068 -27.777   4.524  1.00  0.00     0.187 C 
BRANCH   9  10
ATOM     10  CB  GLU     4       6.807 -29.239   4.923  1.00  0.00     0.045 C 
BRANCH  10  11
ATOM     11  CG  GLU     4       6.076 -30.112   3.880  1.00  0.00     0.100 C 
BRANCH  11  12
ATOM     12  CD  GLU     4       5.795 -31.541   4.341  1.00  0.00     0.185 C 
ATOM     13  OE1 GLU     4       6.483 -31.985   5.298  1.00  0.00    -0.647 OA
ATOM     14  OE2 GLU     4       5.289 -32.313   3.502  1.00  0.00    -0.647 OA
ENDBRANCH  11  12
ENDBRANCH  10  11
ENDBRANCH   9  10
BRANCH   9  15
ATOM     15  N   GLU     4       5.830 -27.218   3.948  1.00  0.00    -0.229 NA
ATOM     16  C   PRO     3       4.648 -27.067   4.533  1.00  0.00     0.272 C 
ATOM     17  O   PRO     3       4.499 -27.025   5.756  1.00  0.00    -0.269 OA
BRANCH  16  18
ATOM     18  CA  PRO     3       3.557 -26.451   3.654  1.00  0.00     0.165 C 
ATOM     19  N   PRO     3       2.770 -27.425   2.868  1.00  0.00    -0.312 N 
ATOM     20  CD  PRO     3       1.338 -27.028   2.872  1.00  0.00     0.105 C 
ATOM     21  C   ASP     2       3.313 -28.418   2.141  1.00  0.00     0.257 C 
ATOM     22  CG  PRO     3       1.333 -25.636   3.522  1.00  0.00     0.027 C 
ATOM     23  CB  PRO     3       2.528 -25.672   4.470  1.00  0.00     0.034 C 
ATOM     24  O   ASP     2       4.533 -28.438   1.920  1.00  0.00    -0.270 OA
BRANCH  21  25
ATOM     25  CA  ASP     2       2.396 -29.325   1.288  1.00  0.00     0.195 C 
BRANCH  25  26
ATOM     26  CB  ASP     2       1.537 -30.358   2.062  1.00  0.00     0.132 C 
BRANCH  26  27
ATOM     27  CG  ASP     2       0.157 -30.516   1.396  1.00  0.00     0.188 C 
ATOM     28  OD2 ASP     2      -0.771 -29.839   1.907  1.00  0.00    -0.647 OA
ATOM     29  OD1 ASP     2      -0.086 -31.624   0.857  1.00  0.00    -0.647 OA
ENDBRANCH  26  27
ENDBRANCH  25  26
BRANCH  25  30
ATOM     30  N   ASP     2       3.165 -30.177   0.365  1.00  0.00    -0.228 NA
ATOM     31  C   TYR     1       3.158 -30.120  -0.946  1.00  0.00     0.289 C 
ATOM     32  O   TYR     1       2.625 -29.270  -1.667  1.00  0.00    -0.268 OA
BRANCH  31  33
ATOM     33  CA  TYR     1       3.903 -31.294  -1.574  1.00  0.00     0.385 C 
ATOM     34  N   TYR     1       3.128 -31.747  -2.741  1.00  0.00     0.626 N 
BRANCH  33  35
ATOM     35  CB  TYR     1       5.296 -30.798  -1.954  1.00  0.00     0.075 C 
BRANCH  35  36
ATOM     36  CG  TYR     1       6.355 -31.103  -0.883  1.00  0.00    -0.019 A 
ATOM     37  CD2 TYR     1       7.096 -30.091  -0.291  1.00  0.00    -0.002 A 
ATOM     38  CE2 TYR     1       7.946 -30.377   0.766  1.00  0.00     0.027 A 
ATOM     39  CZ  TYR     1       8.051 -31.692   1.219  1.00  0.00     0.131 A 
ATOM     40  CE1 TYR     1       7.340 -32.702   0.597  1.00  0.00     0.027 A 
ATOM     41  OH  TYR     1       8.720 -31.966   2.357  1.00  0.00    -0.190 OA
ATOM     42  CD1 TYR     1       6.489 -32.417  -0.460  1.00  0.00    -0.002 A 
ENDBRANCH  35  36
ENDBRANCH  33  35
ENDBRANCH  31  33
ENDBRANCH  25  30
ENDBRANCH  21  25
ENDBRANCH  16  18
ENDBRANCH   9  15
ENDBRANCH   7   9
ENDBRANCH   5   6
BRANCH   5  43
ATOM     43  CB  TYR     5       9.212 -25.255   0.935  1.00  0.00     0.060 C 
BRANCH  43  44
ATOM     44  CG  TYR     5       8.150 -25.820  -0.023  1.00  0.00    -0.020 A 
ATOM     45  CD2 TYR     5       6.801 -25.560   0.184  1.00  0.00    -0.002 A 
ATOM     46  CE2 TYR     5       5.848 -26.070  -0.692  1.00  0.00     0.027 A 
ATOM     47  CZ  TYR     5       6.243 -26.840  -1.775  1.00  0.00     0.131 A 
ATOM     48  CE1 TYR     5       7.592 -27.090  -1.999  1.00  0.00     0.027 A 
ATOM     49  OH  TYR     5       5.320 -27.452  -2.548  1.00  0.00    -0.190 OA
ATOM     50  CD1 TYR     5       8.545 -26.586  -1.114  1.00  0.00    -0.002 A 
ENDBRANCH  43  44
ENDBRANCH   5  43
ENDBRANCH   3   5
ENDBRANCH   1   2
BRANCH   1  51
ATOM     51  CB  ARG     6      14.201 -26.219   3.135  1.00  0.00     0.036 C 
BRANCH  51  52
ATOM     52  CG  ARG     6      14.064 -27.490   2.292  1.00  0.00     0.029 C 
BRANCH  52  53
ATOM     53  CD  ARG     6      15.062 -27.471   1.138  1.00  0.00     0.145 C 
BRANCH  53  54
ATOM     54  NE  ARG     6      14.382 -27.678  -0.151  1.00  0.00    -0.083 NA
ATOM     55  CZ  ARG     6      14.308 -28.847  -0.817  1.00  0.00     0.782 C 
ATOM     56  NH2 ARG     6      13.738 -28.906  -2.022  1.00  0.00     0.063 N 
ATOM     57  NH1 ARG     6      14.880 -29.939  -0.320  1.00  0.00     0.063 N 
ENDBRANCH  53  54
ENDBRANCH  52  53
ENDBRANCH  51  52
ENDBRANCH   1  51
BRANCH   1  58
ATOM     58  C   ARG     6      13.973 -24.160   1.822  1.00  0.00     0.274 C 
ATOM     59  N   ASN     7      13.622 -24.200   0.539  1.00  0.00    -0.228 NA
ATOM     60  O   ARG     6      14.843 -23.427   2.295  1.00  0.00    -0.268 OA
BRANCH  59  61
ATOM     61  CA  ASN     7      14.168 -23.284  -0.484  1.00  0.00     0.196 C 
BRANCH  61  62
ATOM     62  C   ASN     7      13.054 -22.464  -1.163  1.00  0.00     0.275 C 
ATOM     63  N   PHE     8      12.123 -21.924  -0.362  1.00  0.00    -0.228 NA
ATOM     64  O   ASN     7      13.282 -22.035  -2.277  1.00  0.00    -0.268 OA
BRANCH  63  65
ATOM     65  CA  PHE     8      11.026 -21.035  -0.816  1.00  0.00     0.191 C 
BRANCH  65  66
ATOM     66  CB  PHE     8       9.781 -21.337   0.031  1.00  0.00     0.060 C 
BRANCH  66  67
ATOM     67  CG  PHE     8       9.992 -21.185   1.549  1.00  0.00    -0.020 A 
ATOM     68  CD1 PHE     8       9.491 -20.071   2.209  1.00  0.00    -0.004 A 
ATOM     69  CE1 PHE     8       9.770 -19.884   3.563  1.00  0.00    -0.000 A 
ATOM     70  CZ  PHE     8      10.532 -20.818   4.244  1.00  0.00    -0.000 A 
ATOM     71  CE2 PHE     8      11.024 -21.942   3.588  1.00  0.00    -0.000 A 
ATOM     72  CD2 PHE     8      10.745 -22.129   2.234  1.00  0.00    -0.004 A 
ENDBRANCH  66  67
ENDBRANCH  65  66
BRANCH  65  73
ATOM     73  C   PHE     8      11.365 -19.527  -0.815  1.00  0.00     0.275 C 
ATOM     74  N   TRP     9      12.210 -19.109   0.128  1.00  0.00    -0.228 NA
ATOM     75  O   PHE     8      10.700 -18.728  -1.479  1.00  0.00    -0.268 OA
BRANCH  74  76
ATOM     76  CA  TRP     9      12.717 -17.716   0.170  1.00  0.00     0.191 C 
BRANCH  76  77
ATOM     77  CB  TRP     9      12.819 -17.269   1.638  1.00  0.00     0.062 C 
BRANCH  77  78
ATOM     78  CG  TRP     9      11.967 -16.040   1.953  1.00  0.00     0.001 A 
ATOM     79  CD1 TRP     9      12.333 -15.009   2.709  1.00  0.00     0.095 A 
ATOM     80  NE1 TRP     9      11.269 -14.275   3.012  1.00  0.00    -0.244 NA
ATOM     81  CE2 TRP     9      10.193 -14.801   2.446  1.00  0.00     0.081 A 
ATOM     82  CD2 TRP     9      10.591 -15.942   1.768  1.00  0.00     0.015 A 
ATOM     83  CZ2 TRP     9       8.837 -14.483   2.516  1.00  0.00     0.019 A 
ATOM     84  CE3 TRP     9       9.658 -16.777   1.173  1.00  0.00     0.001 A 
ATOM     85  CZ3 TRP     9       8.304 -16.469   1.252  1.00  0.00     0.000 A 
ATOM     86  CH2 TRP     9       7.901 -15.309   1.910  1.00  0.00     0.002 A 
ENDBRANCH  77  78
ENDBRANCH  76  77
BRANCH  76  87
ATOM     87  C   TRP     9      14.047 -17.494  -0.586  1.00  0.00     0.275 C 
ATOM     88  O   TRP     9      15.111 -17.888  -0.119  1.00  0.00    -0.268 OA
ATOM     89  N   GLY    10      13.950 -16.951  -1.799  1.00  0.00    -0.226 NA
BRANCH  89  90
ATOM     90  CA  GLY    10      15.108 -16.698  -2.699  1.00  0.00     0.218 C 
BRANCH  90  91
ATOM     91  C   GLY    10      16.175 -15.721  -2.180  1.00  0.00     0.277 C 
ATOM     92  N   CYS    11      17.400 -16.232  -2.068  1.00  0.00    -0.228 NA
ATOM     93  O   GLY    10      15.854 -14.620  -1.747  1.00  0.00    -0.268 OA
BRANCH  92  94
ATOM     94  CA  CYS    11      18.616 -15.517  -1.619  1.00  0.00     0.198 C 
BRANCH  94  95
ATOM     95  C   CYS    11      18.685 -15.610  -0.082  1.00  0.00     0.275 C 
ATOM     96  O   CYS    11      19.110 -16.638   0.434  1.00  0.00    -0.268 OA
ATOM     97  N   GLY    12      18.089 -14.635   0.588  1.00  0.00    -0.225 NA
BRANCH  97  98
ATOM     98  CA  GLY    12      18.048 -14.580   2.057  1.00  0.00     0.226 C 
BRANCH  98  99
ATOM     99  C   GLY    12      16.871 -15.461   2.536  1.00  0.00     0.211 C 
ATOM    100  O1  GLY    12      15.772 -15.304   1.946  1.00  0.00    -0.646 OA
ATOM    101  O2  GLY    12      17.096 -16.287   3.440  1.00  0.00    -0.646 OA
ENDBRANCH  98  99
ENDBRANCH  97  98
ENDBRANCH  94  95
BRANCH  94 102
ATOM    102  CB  CYS    11      18.498 -14.028  -1.937  1.00  0.00     0.103 C 
ATOM    103  SG  CYS    11      20.075 -13.137  -2.228  1.00  0.00    -0.080 SA
ENDBRANCH  94 102
ENDBRANCH  92  94
ENDBRANCH  90  91
ENDBRANCH  89  90
ENDBRANCH  76  87
ENDBRANCH  74  76
ENDBRANCH  65  73
ENDBRANCH  63  65
ENDBRANCH  61  62
BRANCH  61 104
ATOM    104  CB  ASN     7      14.997 -24.045  -1.526  1.00  0.00     0.126 C 
BRANCH 104 105
ATOM    105  CG  ASN     7      16.496 -23.691  -1.544  1.00  0.00     0.276 C 
ATOM    106  ND2 ASN     7      17.053 -23.482  -0.373  1.00  0.00    -0.107 N 
ATOM    107  OD1 ASN     7      17.147 -23.443  -2.551  1.00  0.00    -0.269 OA
ENDBRANCH 104 105
ENDBRANCH  61 104
ENDBRANCH  59  61
ENDBRANCH   1  58
TORSDOF 42
ENDMDL
MODEL 6
REMARK VINA RESULT:      -4.5      2.338      4.114
REMARK WARNING: 32 MAX_TORS EXCEEDED!!!
REMARK  42 active torsions:
REMARK  status: ('A' for Active; 'I' for Inactive)
REMARK    1  A    between atoms: CA_2  and  CB_3 
REMARK    2  A    between atoms: CA_2  and  C_11 
REMARK    3  A    between atoms: CB_3  and  CG_4 
REMARK       I    between atoms: C_11  and  N_13 
REMARK    4  A    between atoms: N_13  and  CA_14 
REMARK    5  A    between atoms: CA_14  and  CB_15 
REMARK    6  A    between atoms: CA_14  and  C_19 
REMARK    7  A    between atoms: CB_15  and  CG_16 
REMARK       I    between atoms: C_19  and  N_21 
REMARK    8  A    between atoms: CA_22  and  C_26 
REMARK       I    between atoms: C_26  and  N_28 
REMARK    9  A    between atoms: N_28  and  CA_29 
REMARK   10  A    between atoms: CA_29  and  C_35 
REMARK   11  A    between atoms: CA_29  and  CB_30 
REMARK   12  A    between atoms: CB_30  and  CG_31 
REMARK   13  A    between atoms: CG_31  and  CD_32 
REMARK       I    between atoms: C_35  and  N_37 
REMARK   14  A    between atoms: N_37  and  CA_38 
REMARK   15  A    between atoms: CA_38  and  CB_39 
REMARK   16  A    between atoms: CA_38  and  C_47 
REMARK   17  A    between atoms: CB_39  and  CG_40 
REMARK       I    between atoms: C_47  and  N_49 
REMARK   18  A    between atoms: N_49  and  CA_50 
REMARK   19  A    between atoms: CA_50  and  CB_51 
REMARK   20  A    between atoms: CA_50  and  C_58 
REMARK   21  A    between atoms: CB_51  and  CG_52 
REMARK   22  A    between atoms: CG_52  and  CD_53 
REMARK   23  A    between atoms: CD_53  and  NE_54 
REMARK       I    between atoms: C_58  and  N_60 
REMARK   24  A    between atoms: N_60  and  CA_61 
REMARK   25  A    between atoms: CA_61  and  C_66 
REMARK   26  A    between atoms: CA_61  and  CB_62 
REMARK   27  A    between atoms: CB_62  and  CG_63 
REMARK       I    between atoms: C_66  and  N_68 
REMARK   28  A    between atoms: N_68  and  CA_69 
REMARK   29  A    between atoms: CA_69  and  CB_70 
REMARK   30  A    between atoms: CA_69  and  C_77 
REMARK   31  A    between atoms: CB_70  and  CG_71 
REMARK       I    between atoms: C_77  and  N_79 
REMARK   32  A    between atoms: N_79  and  CA_80 
REMARK   33  A    between atoms: CA_80  and  CB_81 
REMARK   34  A    between atoms: CA_80  and  C_91 
REMARK   35  A    between atoms: CB_81  and  CG_82 
REMARK       I    between atoms: C_91  and  N_93 
REMARK   36  A    between atoms: N_93  and  CA_94 
REMARK   37  A    between atoms: CA_94  and  C_95 
REMARK       I    between atoms: C_95  and  N_97 
REMARK   38  A    between atoms: N_97  and  CA_98 
REMARK   39  A    between atoms: CA_98  and  C_101 
REMARK   40  A    between atoms: CA_98  and  CB_99 
REMARK       I    between atoms: C_101  and  N_103 
REMARK   41  A    between atoms: N_103  and  CA_104 
REMARK   42  A    between atoms: CA_104  and  C_105 
ROOT
ATOM      1  CA  ARG     6       2.415 -27.878   4.162  1.00  0.00     0.186 C 
ENDROOT
BRANCH   1   2
ATOM      2  N   ARG     6       0.934 -27.896   4.182  1.00  0.00    -0.229 NA
ATOM      3  C   TYR     5       0.212 -26.907   4.726  1.00  0.00     0.275 C 
ATOM      4  O   TYR     5       0.732 -25.906   5.219  1.00  0.00    -0.268 OA
BRANCH   3   5
ATOM      5  CA  TYR     5      -1.318 -27.013   4.614  1.00  0.00     0.191 C 
BRANCH   5   6
ATOM      6  N   TYR     5      -1.946 -25.842   3.950  1.00  0.00    -0.228 NA
ATOM      7  C   GLU     4      -1.494 -25.321   2.798  1.00  0.00     0.274 C 
ATOM      8  O   GLU     4      -0.617 -25.856   2.131  1.00  0.00    -0.268 OA
BRANCH   7   9
ATOM      9  CA  GLU     4      -2.351 -24.197   2.180  1.00  0.00     0.187 C 
BRANCH   9  10
ATOM     10  CB  GLU     4      -2.846 -23.252   3.286  1.00  0.00     0.045 C 
BRANCH  10  11
ATOM     11  CG  GLU     4      -2.988 -21.763   2.899  1.00  0.00     0.100 C 
BRANCH  11  12
ATOM     12  CD  GLU     4      -2.631 -20.785   4.018  1.00  0.00     0.185 C 
ATOM     13  OE1 GLU     4      -2.959 -19.580   3.859  1.00  0.00    -0.647 OA
ATOM     14  OE2 GLU     4      -1.672 -21.099   4.752  1.00  0.00    -0.647 OA
ENDBRANCH  11  12
ENDBRANCH  10  11
ENDBRANCH   9  10
BRANCH   9  15
ATOM     15  N   GLU     4      -3.519 -24.700   1.432  1.00  0.00    -0.229 NA
ATOM     16  C   PRO     3      -4.108 -24.160   0.372  1.00  0.00     0.272 C 
ATOM     17  O   PRO     3      -3.549 -23.357  -0.377  1.00  0.00    -0.269 OA
BRANCH  16  18
ATOM     18  CA  PRO     3      -5.310 -24.935  -0.173  1.00  0.00     0.165 C 
ATOM     19  N   PRO     3      -6.560 -24.151  -0.274  1.00  0.00    -0.312 N 
ATOM     20  CD  PRO     3      -7.266 -24.497  -1.534  1.00  0.00     0.105 C 
ATOM     21  C   ASP     2      -7.040 -23.371   0.712  1.00  0.00     0.257 C 
ATOM     22  CG  PRO     3      -6.484 -25.698  -2.089  1.00  0.00     0.027 C 
ATOM     23  CB  PRO     3      -5.063 -25.473  -1.580  1.00  0.00     0.034 C 
ATOM     24  O   ASP     2      -6.558 -23.437   1.853  1.00  0.00    -0.270 OA
BRANCH  21  25
ATOM     25  CA  ASP     2      -8.402 -22.665   0.528  1.00  0.00     0.195 C 
BRANCH  25  26
ATOM     26  CB  ASP     2      -8.415 -21.128   0.736  1.00  0.00     0.132 C 
BRANCH  26  27
ATOM     27  CG  ASP     2      -8.961 -20.779   2.134  1.00  0.00     0.188 C 
ATOM     28  OD2 ASP     2     -10.015 -20.094   2.148  1.00  0.00    -0.647 OA
ATOM     29  OD1 ASP     2      -8.117 -20.668   3.057  1.00  0.00    -0.647 OA
ENDBRANCH  26  27
ENDBRANCH  25  26
BRANCH  25  30
ATOM     30  N   ASP     2      -9.402 -23.127   1.506  1.00  0.00    -0.228 NA
ATOM     31  C   TYR     1     -10.141 -24.209   1.422  1.00  0.00     0.289 C 
ATOM     32  O   TYR     1     -10.061 -25.121   0.593  1.00  0.00    -0.268 OA
BRANCH  31  33
ATOM     33  CA  TYR     1     -11.215 -24.252   2.504  1.00  0.00     0.385 C 
ATOM     34  N   TYR     1     -12.498 -24.567   1.853  1.00  0.00     0.626 N 
BRANCH  33  35
ATOM     35  CB  TYR     1     -10.798 -25.315   3.517  1.00  0.00     0.075 C 
BRANCH  35  36
ATOM     36  CG  TYR     1      -9.465 -24.994   4.211  1.00  0.00    -0.019 A 
ATOM     37  CD2 TYR     1      -8.376 -25.846   4.115  1.00  0.00    -0.002 A 
ATOM     38  CE2 TYR     1      -7.147 -25.470   4.635  1.00  0.00     0.027 A 
ATOM     39  CZ  TYR     1      -7.024 -24.229   5.259  1.00  0.00     0.131 A 
ATOM     40  CE1 TYR     1      -8.124 -23.400   5.387  1.00  0.00     0.027 A 
ATOM     41  OH  TYR     1      -5.808 -23.761   5.603  1.00  0.00    -0.190 OA
ATOM     42  CD1 TYR     1      -9.354 -23.777   4.867  1.00  0.00    -0.002 A 
ENDBRANCH  35  36
ENDBRANCH  33  35
ENDBRANCH  31  33
ENDBRANCH  25  30
ENDBRANCH  21  25
ENDBRANCH  16  18
ENDBRANCH   9  15
ENDBRANCH   7   9
ENDBRANCH   5   6
BRANCH   5  43
ATOM     43  CB  TYR     5      -1.727 -28.310   3.894  1.00  0.00     0.060 C 
BRANCH  43  44
ATOM     44  CG  TYR     5      -3.246 -28.548   3.939  1.00  0.00    -0.020 A 
ATOM     45  CD2 TYR     5      -3.880 -28.839   5.140  1.00  0.00    -0.002 A 
ATOM     46  CE2 TYR     5      -5.256 -29.046   5.172  1.00  0.00     0.027 A 
ATOM     47  CZ  TYR     5      -5.997 -28.961   4.003  1.00  0.00     0.131 A 
ATOM     48  CE1 TYR     5      -5.372 -28.651   2.800  1.00  0.00     0.027 A 
ATOM     49  OH  TYR     5      -7.306 -29.296   4.001  1.00  0.00    -0.190 OA
ATOM     50  CD1 TYR     5      -3.992 -28.454   2.770  1.00  0.00    -0.002 A 
ENDBRANCH  43  44
ENDBRANCH   5  43
ENDBRANCH   3   5
ENDBRANCH   1   2
BRANCH   1  51
ATOM     51  CB  ARG     6       3.029 -29.242   4.462  1.00  0.00     0.036 C 
BRANCH  51  52
ATOM     52  CG  ARG     6       4.410 -29.165   5.118  1.00  0.00     0.029 C 
BRANCH  52  53
ATOM     53  CD  ARG     6       4.733 -30.474   5.833  1.00  0.00     0.145 C 
BRANCH  53  54
ATOM     54  NE  ARG     6       5.942 -31.098   5.271  1.00  0.00    -0.083 NA
ATOM     55  CZ  ARG     6       5.991 -32.299   4.664  1.00  0.00     0.782 C 
ATOM     56  NH2 ARG     6       7.158 -32.809   4.264  1.00  0.00     0.063 N 
ATOM     57  NH1 ARG     6       4.890 -33.031   4.535  1.00  0.00     0.063 N 
ENDBRANCH  53  54
ENDBRANCH  52  53
ENDBRANCH  51  52
ENDBRANCH   1  51
BRANCH   1  58
ATOM     58  C   ARG     6       2.979 -27.432   2.807  1.00  0.00     0.274 C 
ATOM     59  N   ASN     7       3.328 -28.411   1.977  1.00  0.00    -0.228 NA
ATOM     60  O   ARG     6       3.081 -26.229   2.565  1.00  0.00    -0.268 OA
BRANCH  59  61
ATOM     61  CA  ASN     7       3.797 -28.179   0.595  1.00  0.00     0.196 C 
BRANCH  61  62
ATOM     62  C   ASN     7       3.380 -29.327  -0.346  1.00  0.00     0.275 C 
ATOM     63  N   PHE     8       4.245 -29.661  -1.315  1.00  0.00    -0.228 NA
ATOM     64  O   ASN     7       2.526 -30.091   0.058  1.00  0.00    -0.268 OA
BRANCH  63  65
ATOM     65  CA  PHE     8       4.064 -30.790  -2.261  1.00  0.00     0.191 C 
BRANCH  65  66
ATOM     66  CB  PHE     8       4.160 -30.239  -3.690  1.00  0.00     0.060 C 
BRANCH  66  67
ATOM     67  CG  PHE     8       3.348 -28.953  -3.932  1.00  0.00    -0.020 A 
ATOM     68  CD1 PHE     8       4.002 -27.735  -4.057  1.00  0.00    -0.004 A 
ATOM     69  CE1 PHE     8       3.262 -26.558  -4.174  1.00  0.00    -0.000 A 
ATOM     70  CZ  PHE     8       1.878 -26.614  -4.180  1.00  0.00    -0.000 A 
ATOM     71  CE2 PHE     8       1.221 -27.835  -4.068  1.00  0.00    -0.000 A 
ATOM     72  CD2 PHE     8       1.961 -29.011  -3.951  1.00  0.00    -0.004 A 
ENDBRANCH  66  67
ENDBRANCH  65  66
BRANCH  65  73
ATOM     73  C   PHE     8       5.021 -31.983  -2.043  1.00  0.00     0.275 C 
ATOM     74  N   TRP     9       5.270 -32.322  -0.777  1.00  0.00    -0.228 NA
ATOM     75  O   PHE     8       5.706 -32.423  -2.970  1.00  0.00    -0.268 OA
BRANCH  74  76
ATOM     76  CA  TRP     9       6.069 -33.521  -0.425  1.00  0.00     0.191 C 
BRANCH  76  77
ATOM     77  CB  TRP     9       7.140 -33.119   0.603  1.00  0.00     0.062 C 
BRANCH  77  78
ATOM     78  CG  TRP     9       8.071 -32.016   0.103  1.00  0.00     0.001 A 
ATOM     79  CD1 TRP     9       8.970 -32.134  -0.869  1.00  0.00     0.095 A 
ATOM     80  NE1 TRP     9       9.795 -31.095  -0.845  1.00  0.00    -0.244 NA
ATOM     81  CE2 TRP     9       9.440 -30.270   0.128  1.00  0.00     0.081 A 
ATOM     82  CD2 TRP     9       8.347 -30.827   0.771  1.00  0.00     0.015 A 
ATOM     83  CZ2 TRP     9      10.010 -29.101   0.632  1.00  0.00     0.019 A 
ATOM     84  CE3 TRP     9       7.823 -30.246   1.917  1.00  0.00     0.001 A 
ATOM     85  CZ3 TRP     9       8.398 -29.087   2.429  1.00  0.00     0.000 A 
ATOM     86  CH2 TRP     9       9.481 -28.509   1.770  1.00  0.00     0.002 A 
ENDBRANCH  77  78
ENDBRANCH  76  77
BRANCH  76  87
ATOM     87  C   TRP     9       5.235 -34.728   0.063  1.00  0.00     0.275 C 
ATOM     88  O   TRP     9       5.022 -35.685  -0.675  1.00  0.00    -0.268 OA
ATOM     89  N   GLY    10       4.860 -34.706   1.341  1.00  0.00    -0.226 NA
BRANCH  89  90
ATOM     90  CA  GLY    10       4.091 -35.792   2.008  1.00  0.00     0.218 C 
BRANCH  90  91
ATOM     91  C   GLY    10       2.570 -35.588   2.108  1.00  0.00     0.277 C 
ATOM     92  N   CYS    11       1.874 -36.018   1.057  1.00  0.00    -0.228 NA
ATOM     93  O   GLY    10       2.089 -34.921   3.017  1.00  0.00    -0.268 OA
BRANCH  92  94
ATOM     94  CA  CYS    11       0.403 -35.971   0.894  1.00  0.00     0.198 C 
BRANCH  94  95
ATOM     95  C   CYS    11      -0.085 -37.389   0.541  1.00  0.00     0.275 C 
ATOM     96  O   CYS    11      -1.024 -37.520  -0.237  1.00  0.00    -0.268 OA
ATOM     97  N   GLY    12       0.423 -38.376   1.264  1.00  0.00    -0.225 NA
BRANCH  97  98
ATOM     98  CA  GLY    12       0.053 -39.787   1.068  1.00  0.00     0.226 C 
BRANCH  98  99
ATOM     99  C   GLY    12      -0.999 -40.157   2.139  1.00  0.00     0.211 C 
ATOM    100  O1  GLY    12      -1.839 -41.037   1.823  1.00  0.00    -0.646 OA
ATOM    101  O2  GLY    12      -0.925 -39.592   3.246  1.00  0.00    -0.646 OA
ENDBRANCH  98  99
ENDBRANCH  97  98
ENDBRANCH  94  95
BRANCH  94 102
ATOM    102  CB  CYS    11       0.035 -35.098  -0.304  1.00  0.00     0.103 C 
ATOM    103  SG  CYS    11       1.261 -35.037  -1.667  1.00  0.00    -0.080 SA
ENDBRANCH  94 102
ENDBRANCH  92  94
ENDBRANCH  90  91
ENDBRANCH  89  90
ENDBRANCH  76  87
ENDBRANCH  74  76
ENDBRANCH  65  73
ENDBRANCH  63  65
ENDBRANCH  61  62
BRANCH  61 104
ATOM    104  CB  ASN     7       5.314 -27.961   0.551  1.00  0.00     0.126 C 
BRANCH 104 105
ATOM    105  CG  ASN     7       5.762 -26.664  -0.149  1.00  0.00     0.276 C 
ATOM    106  ND2 ASN     7       7.053 -26.538  -0.356  1.00  0.00    -0.107 N 
ATOM    107  OD1 ASN     7       5.039 -25.703  -0.376  1.00  0.00    -0.269 OA
ENDBRANCH 104 105
ENDBRANCH  61 104
ENDBRANCH  59  61
ENDBRANCH   1  58
TORSDOF 42
ENDMDL
MODEL 7
REMARK VINA RESULT:      -4.3     10.891     19.011
REMARK WARNING: 32 MAX_TORS EXCEEDED!!!
REMARK  42 active torsions:
REMARK  status: ('A' for Active; 'I' for Inactive)
REMARK    1  A    between atoms: CA_2  and  CB_3 
REMARK    2  A    between atoms: CA_2  and  C_11 
REMARK    3  A    between atoms: CB_3  and  CG_4 
REMARK       I    between atoms: C_11  and  N_13 
REMARK    4  A    between atoms: N_13  and  CA_14 
REMARK    5  A    between atoms: CA_14  and  CB_15 
REMARK    6  A    between atoms: CA_14  and  C_19 
REMARK    7  A    between atoms: CB_15  and  CG_16 
REMARK       I    between atoms: C_19  and  N_21 
REMARK    8  A    between atoms: CA_22  and  C_26 
REMARK       I    between atoms: C_26  and  N_28 
REMARK    9  A    between atoms: N_28  and  CA_29 
REMARK   10  A    between atoms: CA_29  and  C_35 
REMARK   11  A    between atoms: CA_29  and  CB_30 
REMARK   12  A    between atoms: CB_30  and  CG_31 
REMARK   13  A    between atoms: CG_31  and  CD_32 
REMARK       I    between atoms: C_35  and  N_37 
REMARK   14  A    between atoms: N_37  and  CA_38 
REMARK   15  A    between atoms: CA_38  and  CB_39 
REMARK   16  A    between atoms: CA_38  and  C_47 
REMARK   17  A    between atoms: CB_39  and  CG_40 
REMARK       I    between atoms: C_47  and  N_49 
REMARK   18  A    between atoms: N_49  and  CA_50 
REMARK   19  A    between atoms: CA_50  and  CB_51 
REMARK   20  A    between atoms: CA_50  and  C_58 
REMARK   21  A    between atoms: CB_51  and  CG_52 
REMARK   22  A    between atoms: CG_52  and  CD_53 
REMARK   23  A    between atoms: CD_53  and  NE_54 
REMARK       I    between atoms: C_58  and  N_60 
REMARK   24  A    between atoms: N_60  and  CA_61 
REMARK   25  A    between atoms: CA_61  and  C_66 
REMARK   26  A    between atoms: CA_61  and  CB_62 
REMARK   27  A    between atoms: CB_62  and  CG_63 
REMARK       I    between atoms: C_66  and  N_68 
REMARK   28  A    between atoms: N_68  and  CA_69 
REMARK   29  A    between atoms: CA_69  and  CB_70 
REMARK   30  A    between atoms: CA_69  and  C_77 
REMARK   31  A    between atoms: CB_70  and  CG_71 
REMARK       I    between atoms: C_77  and  N_79 
REMARK   32  A    between atoms: N_79  and  CA_80 
REMARK   33  A    between atoms: CA_80  and  CB_81 
REMARK   34  A    between atoms: CA_80  and  C_91 
REMARK   35  A    between atoms: CB_81  and  CG_82 
REMARK       I    between atoms: C_91  and  N_93 
REMARK   36  A    between atoms: N_93  and  CA_94 
REMARK   37  A    between atoms: CA_94  and  C_95 
REMARK       I    between atoms: C_95  and  N_97 
REMARK   38  A    between atoms: N_97  and  CA_98 
REMARK   39  A    between atoms: CA_98  and  C_101 
REMARK   40  A    between atoms: CA_98  and  CB_99 
REMARK       I    between atoms: C_101  and  N_103 
REMARK   41  A    between atoms: N_103  and  CA_104 
REMARK   42  A    between atoms: CA_104  and  C_105 
ROOT
ATOM      1  CA  ARG     6      13.635 -25.383   2.357  1.00  0.00     0.186 C 
ENDROOT
BRANCH   1   2
ATOM      2  N   ARG     6      12.936 -26.258   1.387  1.00  0.00    -0.229 NA
ATOM      3  C   TYR     5      11.762 -26.841   1.662  1.00  0.00     0.275 C 
ATOM      4  O   TYR     5      11.173 -26.664   2.729  1.00  0.00    -0.268 OA
BRANCH   3   5
ATOM      5  CA  TYR     5      11.109 -27.665   0.541  1.00  0.00     0.191 C 
BRANCH   5   6
ATOM      6  N   TYR     5       9.986 -28.517   1.008  1.00  0.00    -0.228 NA
ATOM      7  C   GLU     4      10.135 -29.810   1.343  1.00  0.00     0.274 C 
ATOM      8  O   GLU     4      11.232 -30.348   1.423  1.00  0.00    -0.268 OA
BRANCH   7   9
ATOM      9  CA  GLU     4       8.893 -30.502   1.940  1.00  0.00     0.187 C 
BRANCH   9  10
ATOM     10  CB  GLU     4       8.649 -31.842   1.227  1.00  0.00     0.045 C 
BRANCH  10  11
ATOM     11  CG  GLU     4       7.771 -31.789  -0.043  1.00  0.00     0.100 C 
BRANCH  11  12
ATOM     12  CD  GLU     4       7.840 -33.047  -0.908  1.00  0.00     0.185 C 
ATOM     13  OE1 GLU     4       7.220 -33.030  -2.004  1.00  0.00    -0.647 OA
ATOM     14  OE2 GLU     4       8.073 -34.121  -0.318  1.00  0.00    -0.647 OA
ENDBRANCH  11  12
ENDBRANCH  10  11
ENDBRANCH   9  10
BRANCH   9  15
ATOM     15  N   GLU     4       7.668 -29.686   1.843  1.00  0.00    -0.229 NA
ATOM     16  C   PRO     3       6.801 -29.390   2.804  1.00  0.00     0.272 C 
ATOM     17  O   PRO     3       7.079 -29.440   4.004  1.00  0.00    -0.269 OA
BRANCH  16  18
ATOM     18  CA  PRO     3       5.622 -28.515   2.374  1.00  0.00     0.165 C 
ATOM     19  N   PRO     3       4.288 -29.089   2.654  1.00  0.00    -0.312 N 
ATOM     20  CD  PRO     3       3.377 -28.020   3.137  1.00  0.00     0.105 C 
ATOM     21  C   ASP     2       3.937 -30.353   2.358  1.00  0.00     0.257 C 
ATOM     22  CG  PRO     3       4.170 -26.721   2.925  1.00  0.00     0.027 C 
ATOM     23  CB  PRO     3       5.625 -27.156   3.070  1.00  0.00     0.034 C 
ATOM     24  O   ASP     2       4.660 -31.050   1.630  1.00  0.00    -0.270 OA
BRANCH  21  25
ATOM     25  CA  ASP     2       2.486 -30.820   2.617  1.00  0.00     0.195 C 
BRANCH  25  26
ATOM     26  CB  ASP     2       2.232 -31.573   3.949  1.00  0.00     0.132 C 
BRANCH  26  27
ATOM     27  CG  ASP     2       1.271 -30.770   4.845  1.00  0.00     0.188 C 
ATOM     28  OD2 ASP     2       0.857 -31.370   5.869  1.00  0.00    -0.647 OA
ATOM     29  OD1 ASP     2       0.551 -29.913   4.275  1.00  0.00    -0.647 OA
ENDBRANCH  26  27
ENDBRANCH  25  26
BRANCH  25  30
ATOM     30  N   ASP     2       2.029 -31.792   1.610  1.00  0.00    -0.228 NA
ATOM     31  C   TYR     1       0.854 -31.824   1.027  1.00  0.00     0.289 C 
ATOM     32  O   TYR     1      -0.051 -30.986   1.093  1.00  0.00    -0.268 OA
BRANCH  31  33
ATOM     33  CA  TYR     1       0.658 -33.094   0.205  1.00  0.00     0.385 C 
ATOM     34  N   TYR     1       0.087 -32.706  -1.096  1.00  0.00     0.626 N 
BRANCH  33  35
ATOM     35  CB  TYR     1       2.024 -33.763   0.067  1.00  0.00     0.075 C 
BRANCH  35  36
ATOM     36  CG  TYR     1       2.027 -35.225   0.539  1.00  0.00    -0.019 A 
ATOM     37  CD2 TYR     1       3.178 -35.996   0.493  1.00  0.00    -0.002 A 
ATOM     38  CE2 TYR     1       3.189 -37.267   1.048  1.00  0.00     0.027 A 
ATOM     39  CZ  TYR     1       2.028 -37.758   1.645  1.00  0.00     0.131 A 
ATOM     40  CE1 TYR     1       0.872 -36.999   1.650  1.00  0.00     0.027 A 
ATOM     41  OH  TYR     1       2.063 -38.905   2.353  1.00  0.00    -0.190 OA
ATOM     42  CD1 TYR     1       0.861 -35.729   1.095  1.00  0.00    -0.002 A 
ENDBRANCH  35  36
ENDBRANCH  33  35
ENDBRANCH  31  33
ENDBRANCH  25  30
ENDBRANCH  21  25
ENDBRANCH  16  18
ENDBRANCH   9  15
ENDBRANCH   7   9
ENDBRANCH   5   6
BRANCH   5  43
ATOM     43  CB  TYR     5      10.638 -26.754  -0.606  1.00  0.00     0.060 C 
BRANCH  43  44
ATOM     44  CG  TYR     5       9.132 -26.451  -0.530  1.00  0.00    -0.020 A 
ATOM     45  CD2 TYR     5       8.653 -25.459   0.316  1.00  0.00    -0.002 A 
ATOM     46  CE2 TYR     5       7.289 -25.187   0.373  1.00  0.00     0.027 A 
ATOM     47  CZ  TYR     5       6.405 -25.906  -0.417  1.00  0.00     0.131 A 
ATOM     48  CE1 TYR     5       6.879 -26.888  -1.279  1.00  0.00     0.027 A 
ATOM     49  OH  TYR     5       5.073 -25.745  -0.266  1.00  0.00    -0.190 OA
ATOM     50  CD1 TYR     5       8.245 -27.165  -1.328  1.00  0.00    -0.002 A 
ENDBRANCH  43  44
ENDBRANCH   5  43
ENDBRANCH   3   5
ENDBRANCH   1   2
BRANCH   1  51
ATOM     51  CB  ARG     6      14.822 -26.068   3.027  1.00  0.00     0.036 C 
BRANCH  51  52
ATOM     52  CG  ARG     6      15.456 -27.171   2.175  1.00  0.00     0.029 C 
BRANCH  52  53
ATOM     53  CD  ARG     6      16.834 -26.738   1.685  1.00  0.00     0.145 C 
BRANCH  53  54
ATOM     54  NE  ARG     6      17.479 -25.834   2.652  1.00  0.00    -0.083 NA
ATOM     55  CZ  ARG     6      17.965 -24.610   2.373  1.00  0.00     0.782 C 
ATOM     56  NH2 ARG     6      18.607 -23.906   3.309  1.00  0.00     0.063 N 
ATOM     57  NH1 ARG     6      17.889 -24.123   1.140  1.00  0.00     0.063 N 
ENDBRANCH  53  54
ENDBRANCH  52  53
ENDBRANCH  51  52
ENDBRANCH   1  51
BRANCH   1  58
ATOM     58  C   ARG     6      14.176 -24.102   1.708  1.00  0.00     0.274 C 
ATOM     59  N   ASN     7      14.102 -24.052   0.381  1.00  0.00    -0.228 NA
ATOM     60  O   ARG     6      14.641 -23.215   2.425  1.00  0.00    -0.268 OA
BRANCH  59  61
ATOM     61  CA  ASN     7      14.481 -22.864  -0.411  1.00  0.00     0.196 C 
BRANCH  61  62
ATOM     62  C   ASN     7      13.248 -22.180  -1.033  1.00  0.00     0.275 C 
ATOM     63  N   PHE     8      12.490 -21.435  -0.214  1.00  0.00    -0.228 NA
ATOM     64  O   ASN     7      13.248 -22.029  -2.239  1.00  0.00    -0.268 OA
BRANCH  63  65
ATOM     65  CA  PHE     8      11.318 -20.632  -0.641  1.00  0.00     0.191 C 
BRANCH  65  66
ATOM     66  CB  PHE     8      10.076 -21.175   0.081  1.00  0.00     0.060 C 
BRANCH  66  67
ATOM     67  CG  PHE     8      10.314 -21.564   1.552  1.00  0.00    -0.020 A 
ATOM     68  CD1 PHE     8      10.285 -20.590   2.540  1.00  0.00    -0.004 A 
ATOM     69  CE1 PHE     8      10.601 -20.926   3.856  1.00  0.00    -0.000 A 
ATOM     70  CZ  PHE     8      10.928 -22.234   4.172  1.00  0.00    -0.000 A 
ATOM     71  CE2 PHE     8      10.944 -23.215   3.186  1.00  0.00    -0.000 A 
ATOM     72  CD2 PHE     8      10.628 -22.879   1.870  1.00  0.00    -0.004 A 
ENDBRANCH  66  67
ENDBRANCH  65  66
BRANCH  65  73
ATOM     73  C   PHE     8      11.468 -19.106  -0.450  1.00  0.00     0.275 C 
ATOM     74  N   TRP     9      12.509 -18.698   0.277  1.00  0.00    -0.228 NA
ATOM     75  O   PHE     8      10.545 -18.338  -0.734  1.00  0.00    -0.268 OA
BRANCH  74  76
ATOM     76  CA  TRP     9      12.843 -17.261   0.436  1.00  0.00     0.191 C 
BRANCH  76  77
ATOM     77  CB  TRP     9      13.086 -16.971   1.927  1.00  0.00     0.062 C 
BRANCH  77  78
ATOM     78  CG  TRP     9      11.805 -16.646   2.694  1.00  0.00     0.001 A 
ATOM     79  CD1 TRP     9      11.328 -17.318   3.738  1.00  0.00     0.095 A 
ATOM     80  NE1 TRP     9      10.072 -16.957   3.967  1.00  0.00    -0.244 NA
ATOM     81  CE2 TRP     9       9.711 -16.030   3.092  1.00  0.00     0.081 A 
ATOM     82  CD2 TRP     9      10.787 -15.810   2.247  1.00  0.00     0.015 A 
ATOM     83  CZ2 TRP     9       8.498 -15.389   2.839  1.00  0.00     0.019 A 
ATOM     84  CE3 TRP     9      10.667 -14.974   1.147  1.00  0.00     0.001 A 
ATOM     85  CZ3 TRP     9       9.454 -14.345   0.885  1.00  0.00     0.000 A 
ATOM     86  CH2 TRP     9       8.378 -14.542   1.747  1.00  0.00     0.002 A 
ENDBRANCH  77  78
ENDBRANCH  76  77
BRANCH  76  87
ATOM     87  C   TRP     9      14.022 -16.775  -0.438  1.00  0.00     0.275 C 
ATOM     88  O   TRP     9      13.952 -16.807  -1.663  1.00  0.00    -0.268 OA
ATOM     89  N   GLY    10      15.053 -16.238   0.211  1.00  0.00    -0.226 NA
BRANCH  89  90
ATOM     90  CA  GLY    10      16.261 -15.675  -0.453  1.00  0.00     0.218 C 
BRANCH  90  91
ATOM     91  C   GLY    10      17.279 -14.975   0.461  1.00  0.00     0.277 C 
ATOM     92  N   CYS    11      18.482 -15.546   0.505  1.00  0.00    -0.228 NA
ATOM     93  O   GLY    10      16.927 -14.071   1.210  1.00  0.00    -0.268 OA
BRANCH  92  94
ATOM     94  CA  CYS    11      19.653 -15.076   1.279  1.00  0.00     0.198 C 
BRANCH  94  95
ATOM     95  C   CYS    11      20.348 -13.965   0.468  1.00  0.00     0.275 C 
ATOM     96  O   CYS    11      20.426 -12.839   0.945  1.00  0.00    -0.268 OA
ATOM     97  N   GLY    12      20.643 -14.261  -0.790  1.00  0.00    -0.225 NA
BRANCH  97  98
ATOM     98  CA  GLY    12      21.293 -13.310  -1.705  1.00  0.00     0.226 C 
BRANCH  98  99
ATOM     99  C   GLY    12      20.311 -13.016  -2.864  1.00  0.00     0.211 C 
ATOM    100  O1  GLY    12      19.126 -13.408  -2.712  1.00  0.00    -0.646 OA
ATOM    101  O2  GLY    12      20.745 -12.386  -3.846  1.00  0.00    -0.646 OA
ENDBRANCH  98  99
ENDBRANCH  97  98
ENDBRANCH  94  95
BRANCH  94 102
ATOM    102  CB  CYS    11      20.682 -16.197   1.408  1.00  0.00     0.103 C 
ATOM    103  SG  CYS    11      22.121 -15.853   2.491  1.00  0.00    -0.080 SA
ENDBRANCH  94 102
ENDBRANCH  92  94
ENDBRANCH  90  91
ENDBRANCH  89  90
ENDBRANCH  76  87
ENDBRANCH  74  76
ENDBRANCH  65  73
ENDBRANCH  63  65
ENDBRANCH  61  62
BRANCH  61 104
ATOM    104  CB  ASN     7      15.509 -23.222  -1.492  1.00  0.00     0.126 C 
BRANCH 104 105
ATOM    105  CG  ASN     7      16.678 -22.229  -1.627  1.00  0.00     0.276 C 
ATOM    106  ND2 ASN     7      17.656 -22.594  -2.425  1.00  0.00    -0.107 N 
ATOM    107  OD1 ASN     7      16.830 -21.225  -0.943  1.00  0.00    -0.269 OA
ENDBRANCH 104 105
ENDBRANCH  61 104
ENDBRANCH  59  61
ENDBRANCH   1  58
TORSDOF 42
ENDMDL
MODEL 8
REMARK VINA RESULT:      -4.3      9.771     17.782
REMARK WARNING: 32 MAX_TORS EXCEEDED!!!
REMARK  42 active torsions:
REMARK  status: ('A' for Active; 'I' for Inactive)
REMARK    1  A    between atoms: CA_2  and  CB_3 
REMARK    2  A    between atoms: CA_2  and  C_11 
REMARK    3  A    between atoms: CB_3  and  CG_4 
REMARK       I    between atoms: C_11  and  N_13 
REMARK    4  A    between atoms: N_13  and  CA_14 
REMARK    5  A    between atoms: CA_14  and  CB_15 
REMARK    6  A    between atoms: CA_14  and  C_19 
REMARK    7  A    between atoms: CB_15  and  CG_16 
REMARK       I    between atoms: C_19  and  N_21 
REMARK    8  A    between atoms: CA_22  and  C_26 
REMARK       I    between atoms: C_26  and  N_28 
REMARK    9  A    between atoms: N_28  and  CA_29 
REMARK   10  A    between atoms: CA_29  and  C_35 
REMARK   11  A    between atoms: CA_29  and  CB_30 
REMARK   12  A    between atoms: CB_30  and  CG_31 
REMARK   13  A    between atoms: CG_31  and  CD_32 
REMARK       I    between atoms: C_35  and  N_37 
REMARK   14  A    between atoms: N_37  and  CA_38 
REMARK   15  A    between atoms: CA_38  and  CB_39 
REMARK   16  A    between atoms: CA_38  and  C_47 
REMARK   17  A    between atoms: CB_39  and  CG_40 
REMARK       I    between atoms: C_47  and  N_49 
REMARK   18  A    between atoms: N_49  and  CA_50 
REMARK   19  A    between atoms: CA_50  and  CB_51 
REMARK   20  A    between atoms: CA_50  and  C_58 
REMARK   21  A    between atoms: CB_51  and  CG_52 
REMARK   22  A    between atoms: CG_52  and  CD_53 
REMARK   23  A    between atoms: CD_53  and  NE_54 
REMARK       I    between atoms: C_58  and  N_60 
REMARK   24  A    between atoms: N_60  and  CA_61 
REMARK   25  A    between atoms: CA_61  and  C_66 
REMARK   26  A    between atoms: CA_61  and  CB_62 
REMARK   27  A    between atoms: CB_62  and  CG_63 
REMARK       I    between atoms: C_66  and  N_68 
REMARK   28  A    between atoms: N_68  and  CA_69 
REMARK   29  A    between atoms: CA_69  and  CB_70 
REMARK   30  A    between atoms: CA_69  and  C_77 
REMARK   31  A    between atoms: CB_70  and  CG_71 
REMARK       I    between atoms: C_77  and  N_79 
REMARK   32  A    between atoms: N_79  and  CA_80 
REMARK   33  A    between atoms: CA_80  and  CB_81 
REMARK   34  A    between atoms: CA_80  and  C_91 
REMARK   35  A    between atoms: CB_81  and  CG_82 
REMARK       I    between atoms: C_91  and  N_93 
REMARK   36  A    between atoms: N_93  and  CA_94 
REMARK   37  A    between atoms: CA_94  and  C_95 
REMARK       I    between atoms: C_95  and  N_97 
REMARK   38  A    between atoms: N_97  and  CA_98 
REMARK   39  A    between atoms: CA_98  and  C_101 
REMARK   40  A    between atoms: CA_98  and  CB_99 
REMARK       I    between atoms: C_101  and  N_103 
REMARK   41  A    between atoms: N_103  and  CA_104 
REMARK   42  A    between atoms: CA_104  and  C_105 
ROOT
ATOM      1  CA  ARG     6      13.669 -26.022   2.046  1.00  0.00     0.186 C 
ENDROOT
BRANCH   1   2
ATOM      2  N   ARG     6      12.880 -26.765   1.036  1.00  0.00    -0.229 NA
ATOM      3  C   TYR     5      11.772 -27.449   1.352  1.00  0.00     0.275 C 
ATOM      4  O   TYR     5      11.322 -27.480   2.497  1.00  0.00    -0.268 OA
BRANCH   3   5
ATOM      5  CA  TYR     5      11.006 -28.114   0.197  1.00  0.00     0.191 C 
BRANCH   5   6
ATOM      6  N   TYR     5       9.819 -28.890   0.642  1.00  0.00    -0.228 NA
ATOM      7  C   GLU     4       9.513 -30.105   0.157  1.00  0.00     0.274 C 
ATOM      8  O   GLU     4      10.262 -30.728  -0.584  1.00  0.00    -0.268 OA
BRANCH   7   9
ATOM      9  CA  GLU     4       8.328 -30.824   0.833  1.00  0.00     0.187 C 
BRANCH   9  10
ATOM     10  CB  GLU     4       8.692 -32.294   1.098  1.00  0.00     0.045 C 
BRANCH  10  11
ATOM     11  CG  GLU     4       7.665 -33.117   1.905  1.00  0.00     0.100 C 
BRANCH  11  12
ATOM     12  CD  GLU     4       7.477 -32.649   3.348  1.00  0.00     0.185 C 
ATOM     13  OE1 GLU     4       6.326 -32.268   3.687  1.00  0.00    -0.647 OA
ATOM     14  OE2 GLU     4       8.493 -32.229   3.938  1.00  0.00    -0.647 OA
ENDBRANCH  11  12
ENDBRANCH  10  11
ENDBRANCH   9  10
BRANCH   9  15
ATOM     15  N   GLU     4       7.089 -30.782   0.033  1.00  0.00    -0.229 NA
ATOM     16  C   PRO     3       6.000 -30.051   0.244  1.00  0.00     0.272 C 
ATOM     17  O   PRO     3       5.997 -29.024   0.924  1.00  0.00    -0.269 OA
BRANCH  16  18
ATOM     18  CA  PRO     3       4.877 -30.242  -0.778  1.00  0.00     0.165 C 
ATOM     19  N   PRO     3       3.531 -30.427  -0.194  1.00  0.00    -0.312 N 
ATOM     20  CD  PRO     3       2.532 -29.679  -0.999  1.00  0.00     0.105 C 
ATOM     21  C   ASP     2       3.260 -31.275   0.814  1.00  0.00     0.257 C 
ATOM     22  CG  PRO     3       3.315 -29.206  -2.233  1.00  0.00     0.027 C 
ATOM     23  CB  PRO     3       4.742 -29.047  -1.719  1.00  0.00     0.034 C 
ATOM     24  O   ASP     2       4.101 -32.114   1.171  1.00  0.00    -0.270 OA
BRANCH  21  25
ATOM     25  CA  ASP     2       1.799 -31.451   1.287  1.00  0.00     0.195 C 
BRANCH  25  26
ATOM     26  CB  ASP     2       1.561 -31.408   2.819  1.00  0.00     0.132 C 
BRANCH  26  27
ATOM     27  CG  ASP     2       1.073 -30.012   3.248  1.00  0.00     0.188 C 
ATOM     28  OD2 ASP     2       0.513 -29.956   4.372  1.00  0.00    -0.647 OA
ATOM     29  OD1 ASP     2       0.736 -29.225   2.329  1.00  0.00    -0.647 OA
ENDBRANCH  26  27
ENDBRANCH  25  26
BRANCH  25  30
ATOM     30  N   ASP     2       1.252 -32.768   0.917  1.00  0.00    -0.228 NA
ATOM     31  C   TYR     1       0.558 -33.054  -0.160  1.00  0.00     0.289 C 
ATOM     32  O   TYR     1       0.338 -32.332  -1.137  1.00  0.00    -0.268 OA
BRANCH  31  33
ATOM     33  CA  TYR     1      -0.027 -34.462  -0.104  1.00  0.00     0.385 C 
ATOM     34  N   TYR     1      -0.905 -34.632  -1.274  1.00  0.00     0.626 N 
BRANCH  33  35
ATOM     35  CB  TYR     1       1.143 -35.442  -0.105  1.00  0.00     0.075 C 
BRANCH  35  36
ATOM     36  CG  TYR     1       1.090 -36.443   1.060  1.00  0.00    -0.019 A 
ATOM     37  CD2 TYR     1       1.474 -36.081   2.342  1.00  0.00    -0.002 A 
ATOM     38  CE2 TYR     1       1.289 -36.959   3.399  1.00  0.00     0.027 A 
ATOM     39  CZ  TYR     1       0.719 -38.208   3.155  1.00  0.00     0.131 A 
ATOM     40  CE1 TYR     1       0.376 -38.578   1.867  1.00  0.00     0.027 A 
ATOM     41  OH  TYR     1       0.357 -39.001   4.183  1.00  0.00    -0.190 OA
ATOM     42  CD1 TYR     1       0.561 -37.700   0.809  1.00  0.00    -0.002 A 
ENDBRANCH  35  36
ENDBRANCH  33  35
ENDBRANCH  31  33
ENDBRANCH  25  30
ENDBRANCH  21  25
ENDBRANCH  16  18
ENDBRANCH   9  15
ENDBRANCH   7   9
ENDBRANCH   5   6
BRANCH   5  43
ATOM     43  CB  TYR     5      10.592 -27.075  -0.858  1.00  0.00     0.060 C 
BRANCH  43  44
ATOM     44  CG  TYR     5       9.127 -26.634  -0.699  1.00  0.00    -0.020 A 
ATOM     45  CD2 TYR     5       8.744 -25.825   0.363  1.00  0.00    -0.002 A 
ATOM     46  CE2 TYR     5       7.417 -25.425   0.495  1.00  0.00     0.027 A 
ATOM     47  CZ  TYR     5       6.475 -25.833  -0.436  1.00  0.00     0.131 A 
ATOM     48  CE1 TYR     5       6.853 -26.628  -1.511  1.00  0.00     0.027 A 
ATOM     49  OH  TYR     5       5.165 -25.566  -0.240  1.00  0.00    -0.190 OA
ATOM     50  CD1 TYR     5       8.182 -27.035  -1.636  1.00  0.00    -0.002 A 
ENDBRANCH  43  44
ENDBRANCH   5  43
ENDBRANCH   3   5
ENDBRANCH   1   2
BRANCH   1  51
ATOM     51  CB  ARG     6      14.936 -26.758   2.469  1.00  0.00     0.036 C 
BRANCH  51  52
ATOM     52  CG  ARG     6      14.799 -27.502   3.799  1.00  0.00     0.029 C 
BRANCH  52  53
ATOM     53  CD  ARG     6      14.990 -29.002   3.591  1.00  0.00     0.145 C 
BRANCH  53  54
ATOM     54  NE  ARG     6      13.693 -29.698   3.549  1.00  0.00    -0.083 NA
ATOM     55  CZ  ARG     6      13.254 -30.472   2.539  1.00  0.00     0.782 C 
ATOM     56  NH2 ARG     6      12.024 -30.990   2.566  1.00  0.00     0.063 N 
ATOM     57  NH1 ARG     6      14.009 -30.661   1.462  1.00  0.00     0.063 N 
ENDBRANCH  53  54
ENDBRANCH  52  53
ENDBRANCH  51  52
ENDBRANCH   1  51
BRANCH   1  58
ATOM     58  C   ARG     6      14.111 -24.641   1.544  1.00  0.00     0.274 C 
ATOM     59  N   ASN     7      14.138 -24.488   0.223  1.00  0.00    -0.228 NA
ATOM     60  O   ARG     6      14.413 -23.772   2.364  1.00  0.00    -0.268 OA
BRANCH  59  61
ATOM     61  CA  ASN     7      14.442 -23.204  -0.442  1.00  0.00     0.196 C 
BRANCH  61  62
ATOM     62  C   ASN     7      13.167 -22.535  -0.993  1.00  0.00     0.275 C 
ATOM     63  N   PHE     8      12.264 -22.118  -0.093  1.00  0.00    -0.228 NA
ATOM     64  O   ASN     7      13.222 -22.084  -2.120  1.00  0.00    -0.268 OA
BRANCH  63  65
ATOM     65  CA  PHE     8      11.021 -21.378  -0.421  1.00  0.00     0.191 C 
BRANCH  65  66
ATOM     66  CB  PHE     8       9.910 -21.863   0.521  1.00  0.00     0.060 C 
BRANCH  66  67
ATOM     67  CG  PHE     8      10.073 -21.410   1.984  1.00  0.00    -0.020 A 
ATOM     68  CD1 PHE     8      10.880 -22.136   2.848  1.00  0.00    -0.004 A 
ATOM     69  CE1 PHE     8      10.946 -21.784   4.196  1.00  0.00    -0.000 A 
ATOM     70  CZ  PHE     8      10.217 -20.702   4.662  1.00  0.00    -0.000 A 
ATOM     71  CE2 PHE     8       9.418 -19.965   3.794  1.00  0.00    -0.000 A 
ATOM     72  CD2 PHE     8       9.352 -20.316   2.446  1.00  0.00    -0.004 A 
ENDBRANCH  66  67
ENDBRANCH  65  66
BRANCH  65  73
ATOM     73  C   PHE     8      11.153 -19.838  -0.402  1.00  0.00     0.275 C 
ATOM     74  N   TRP     9      12.117 -19.335   0.371  1.00  0.00    -0.228 NA
ATOM     75  O   PHE     8      10.265 -19.120  -0.867  1.00  0.00    -0.268 OA
BRANCH  74  76
ATOM     76  CA  TRP     9      12.436 -17.886   0.389  1.00  0.00     0.191 C 
BRANCH  76  77
ATOM     77  CB  TRP     9      12.463 -17.402   1.848  1.00  0.00     0.062 C 
BRANCH  77  78
ATOM     78  CG  TRP     9      11.722 -16.082   2.058  1.00  0.00     0.001 A 
ATOM     79  CD1 TRP     9      12.198 -15.011   2.686  1.00  0.00     0.095 A 
ATOM     80  NE1 TRP     9      11.208 -14.166   2.945  1.00  0.00    -0.244 NA
ATOM     81  CE2 TRP     9      10.071 -14.659   2.475  1.00  0.00     0.081 A 
ATOM     82  CD2 TRP     9      10.351 -15.893   1.911  1.00  0.00     0.015 A 
ATOM     83  CZ2 TRP     9       8.748 -14.227   2.556  1.00  0.00     0.019 A 
ATOM     84  CE3 TRP     9       9.332 -16.708   1.441  1.00  0.00     0.001 A 
ATOM     85  CZ3 TRP     9       8.010 -16.285   1.532  1.00  0.00     0.000 A 
ATOM     86  CH2 TRP     9       7.726 -15.033   2.075  1.00  0.00     0.002 A 
ENDBRANCH  77  78
ENDBRANCH  76  77
BRANCH  76  87
ATOM     87  C   TRP     9      13.733 -17.505  -0.361  1.00  0.00     0.275 C 
ATOM     88  O   TRP     9      13.780 -16.504  -1.070  1.00  0.00    -0.268 OA
ATOM     89  N   GLY    10      14.801 -18.262  -0.112  1.00  0.00    -0.226 NA
BRANCH  89  90
ATOM     90  CA  GLY    10      16.148 -18.031  -0.701  1.00  0.00     0.218 C 
BRANCH  90  91
ATOM     91  C   GLY    10      17.181 -17.344   0.207  1.00  0.00     0.277 C 
ATOM     92  N   CYS    11      16.683 -16.799   1.315  1.00  0.00    -0.228 NA
ATOM     93  O   GLY    10      18.334 -17.176  -0.176  1.00  0.00    -0.268 OA
BRANCH  92  94
ATOM     94  CA  CYS    11      17.445 -16.098   2.373  1.00  0.00     0.198 C 
BRANCH  94  95
ATOM     95  C   CYS    11      16.787 -16.420   3.729  1.00  0.00     0.275 C 
ATOM     96  O   CYS    11      16.763 -15.557   4.600  1.00  0.00    -0.268 OA
ATOM     97  N   GLY    12      16.464 -17.689   3.933  1.00  0.00    -0.225 NA
BRANCH  97  98
ATOM     98  CA  GLY    12      15.843 -18.168   5.178  1.00  0.00     0.226 C 
BRANCH  98  99
ATOM     99  C   GLY    12      14.312 -18.202   4.966  1.00  0.00     0.211 C 
ATOM    100  O1  GLY    12      13.818 -19.296   4.592  1.00  0.00    -0.646 OA
ATOM    101  O2  GLY    12      13.670 -17.164   5.211  1.00  0.00    -0.646 OA
ENDBRANCH  98  99
ENDBRANCH  97  98
ENDBRANCH  94  95
BRANCH  94 102
ATOM    102  CB  CYS    11      17.316 -14.587   2.201  1.00  0.00     0.103 C 
ATOM    103  SG  CYS    11      18.876 -13.627   2.288  1.00  0.00    -0.080 SA
ENDBRANCH  94 102
ENDBRANCH  92  94
ENDBRANCH  90  91
ENDBRANCH  89  90
ENDBRANCH  76  87
ENDBRANCH  74  76
ENDBRANCH  65  73
ENDBRANCH  63  65
ENDBRANCH  61  62
BRANCH  61 104
ATOM    104  CB  ASN     7      15.485 -23.386  -1.552  1.00  0.00     0.126 C 
BRANCH 104 105
ATOM    105  CG  ASN     7      16.940 -23.496  -1.061  1.00  0.00     0.276 C 
ATOM    106  ND2 ASN     7      17.238 -22.809   0.018  1.00  0.00    -0.107 N 
ATOM    107  OD1 ASN     7      17.851 -24.037  -1.675  1.00  0.00    -0.269 OA
ENDBRANCH 104 105
ENDBRANCH  61 104
ENDBRANCH  59  61
ENDBRANCH   1  58
TORSDOF 42
ENDMDL
MODEL 9
REMARK VINA RESULT:      -4.3      9.724     18.110
REMARK WARNING: 32 MAX_TORS EXCEEDED!!!
REMARK  42 active torsions:
REMARK  status: ('A' for Active; 'I' for Inactive)
REMARK    1  A    between atoms: CA_2  and  CB_3 
REMARK    2  A    between atoms: CA_2  and  C_11 
REMARK    3  A    between atoms: CB_3  and  CG_4 
REMARK       I    between atoms: C_11  and  N_13 
REMARK    4  A    between atoms: N_13  and  CA_14 
REMARK    5  A    between atoms: CA_14  and  CB_15 
REMARK    6  A    between atoms: CA_14  and  C_19 
REMARK    7  A    between atoms: CB_15  and  CG_16 
REMARK       I    between atoms: C_19  and  N_21 
REMARK    8  A    between atoms: CA_22  and  C_26 
REMARK       I    between atoms: C_26  and  N_28 
REMARK    9  A    between atoms: N_28  and  CA_29 
REMARK   10  A    between atoms: CA_29  and  C_35 
REMARK   11  A    between atoms: CA_29  and  CB_30 
REMARK   12  A    between atoms: CB_30  and  CG_31 
REMARK   13  A    between atoms: CG_31  and  CD_32 
REMARK       I    between atoms: C_35  and  N_37 
REMARK   14  A    between atoms: N_37  and  CA_38 
REMARK   15  A    between atoms: CA_38  and  CB_39 
REMARK   16  A    between atoms: CA_38  and  C_47 
REMARK   17  A    between atoms: CB_39  and  CG_40 
REMARK       I    between atoms: C_47  and  N_49 
REMARK   18  A    between atoms: N_49  and  CA_50 
REMARK   19  A    between atoms: CA_50  and  CB_51 
REMARK   20  A    between atoms: CA_50  and  C_58 
REMARK   21  A    between atoms: CB_51  and  CG_52 
REMARK   22  A    between atoms: CG_52  and  CD_53 
REMARK   23  A    between atoms: CD_53  and  NE_54 
REMARK       I    between atoms: C_58  and  N_60 
REMARK   24  A    between atoms: N_60  and  CA_61 
REMARK   25  A    between atoms: CA_61  and  C_66 
REMARK   26  A    between atoms: CA_61  and  CB_62 
REMARK   27  A    between atoms: CB_62  and  CG_63 
REMARK       I    between atoms: C_66  and  N_68 
REMARK   28  A    between atoms: N_68  and  CA_69 
REMARK   29  A    between atoms: CA_69  and  CB_70 
REMARK   30  A    between atoms: CA_69  and  C_77 
REMARK   31  A    between atoms: CB_70  and  CG_71 
REMARK       I    between atoms: C_77  and  N_79 
REMARK   32  A    between atoms: N_79  and  CA_80 
REMARK   33  A    between atoms: CA_80  and  CB_81 
REMARK   34  A    between atoms: CA_80  and  C_91 
REMARK   35  A    between atoms: CB_81  and  CG_82 
REMARK       I    between atoms: C_91  and  N_93 
REMARK   36  A    between atoms: N_93  and  CA_94 
REMARK   37  A    between atoms: CA_94  and  C_95 
REMARK       I    between atoms: C_95  and  N_97 
REMARK   38  A    between atoms: N_97  and  CA_98 
REMARK   39  A    between atoms: CA_98  and  C_101 
REMARK   40  A    between atoms: CA_98  and  CB_99 
REMARK       I    between atoms: C_101  and  N_103 
REMARK   41  A    between atoms: N_103  and  CA_104 
REMARK   42  A    between atoms: CA_104  and  C_105 
ROOT
ATOM      1  CA  ARG     6      13.784 -26.908   1.594  1.00  0.00     0.186 C 
ENDROOT
BRANCH   1   2
ATOM      2  N   ARG     6      12.829 -27.389   0.568  1.00  0.00    -0.229 NA
ATOM      3  C   TYR     5      11.821 -28.221   0.860  1.00  0.00     0.275 C 
ATOM      4  O   TYR     5      11.604 -28.617   2.006  1.00  0.00    -0.268 OA
BRANCH   3   5
ATOM      5  CA  TYR     5      10.859 -28.584  -0.283  1.00  0.00     0.191 C 
BRANCH   5   6
ATOM      6  N   TYR     5       9.614 -29.252   0.179  1.00  0.00    -0.228 NA
ATOM      7  C   GLU     4       9.396 -30.570   0.046  1.00  0.00     0.274 C 
ATOM      8  O   GLU     4      10.260 -31.347  -0.338  1.00  0.00    -0.268 OA
BRANCH   7   9
ATOM      9  CA  GLU     4       8.113 -31.114   0.708  1.00  0.00     0.187 C 
BRANCH   9  10
ATOM     10  CB  GLU     4       8.312 -32.587   1.099  1.00  0.00     0.045 C 
BRANCH  10  11
ATOM     11  CG  GLU     4       7.557 -33.629   0.245  1.00  0.00     0.100 C 
BRANCH  11  12
ATOM     12  CD  GLU     4       8.292 -34.051  -1.027  1.00  0.00     0.185 C 
ATOM     13  OE1 GLU     4       7.686 -33.903  -2.121  1.00  0.00    -0.647 OA
ATOM     14  OE2 GLU     4       9.186 -34.911  -0.899  1.00  0.00    -0.647 OA
ENDBRANCH  11  12
ENDBRANCH  10  11
ENDBRANCH   9  10
BRANCH   9  15
ATOM     15  N   GLU     4       6.923 -31.014  -0.159  1.00  0.00    -0.229 NA
ATOM     16  C   PRO     3       5.869 -30.219  -0.016  1.00  0.00     0.272 C 
ATOM     17  O   PRO     3       5.888 -29.184   0.651  1.00  0.00    -0.269 OA
BRANCH  16  18
ATOM     18  CA  PRO     3       4.793 -30.361  -1.095  1.00  0.00     0.165 C 
ATOM     19  N   PRO     3       3.407 -30.426  -0.586  1.00  0.00    -0.312 N 
ATOM     20  CD  PRO     3       2.513 -29.634  -1.469  1.00  0.00     0.105 C 
ATOM     21  C   ASP     2       3.016 -31.216   0.430  1.00  0.00     0.257 C 
ATOM     22  CG  PRO     3       3.397 -29.263  -2.669  1.00  0.00     0.027 C 
ATOM     23  CB  PRO     3       4.802 -29.192  -2.077  1.00  0.00     0.034 C 
ATOM     24  O   ASP     2       3.770 -32.102   0.860  1.00  0.00    -0.270 OA
BRANCH  21  25
ATOM     25  CA  ASP     2       1.522 -31.267   0.823  1.00  0.00     0.195 C 
BRANCH  25  26
ATOM     26  CB  ASP     2       1.188 -30.963   2.306  1.00  0.00     0.132 C 
BRANCH  26  27
ATOM     27  CG  ASP     2       0.673 -29.520   2.457  1.00  0.00     0.188 C 
ATOM     28  OD2 ASP     2       1.517 -28.617   2.226  1.00  0.00    -0.647 OA
ATOM     29  OD1 ASP     2      -0.247 -29.333   3.292  1.00  0.00    -0.647 OA
ENDBRANCH  26  27
ENDBRANCH  25  26
BRANCH  25  30
ATOM     30  N   ASP     2       0.946 -32.610   0.636  1.00  0.00    -0.228 NA
ATOM     31  C   TYR     1       0.470 -33.112  -0.480  1.00  0.00     0.289 C 
ATOM     32  O   TYR     1       0.528 -32.630  -1.616  1.00  0.00    -0.268 OA
BRANCH  31  33
ATOM     33  CA  TYR     1      -0.241 -34.442  -0.251  1.00  0.00     0.385 C 
ATOM     34  N   TYR     1      -1.207 -34.631  -1.346  1.00  0.00     0.626 N 
BRANCH  33  35
ATOM     35  CB  TYR     1       0.829 -35.531  -0.220  1.00  0.00     0.075 C 
BRANCH  35  36
ATOM     36  CG  TYR     1       0.759 -36.406   1.041  1.00  0.00    -0.019 A 
ATOM     37  CD2 TYR     1       0.256 -37.697   0.997  1.00  0.00    -0.002 A 
ATOM     38  CE2 TYR     1       0.329 -38.512   2.117  1.00  0.00     0.027 A 
ATOM     39  CZ  TYR     1       0.908 -38.014   3.284  1.00  0.00     0.131 A 
ATOM     40  CE1 TYR     1       1.370 -36.711   3.332  1.00  0.00     0.027 A 
ATOM     41  OH  TYR     1       1.160 -38.838   4.320  1.00  0.00    -0.190 OA
ATOM     42  CD1 TYR     1       1.297 -35.896   2.213  1.00  0.00    -0.002 A 
ENDBRANCH  35  36
ENDBRANCH  33  35
ENDBRANCH  31  33
ENDBRANCH  25  30
ENDBRANCH  21  25
ENDBRANCH  16  18
ENDBRANCH   9  15
ENDBRANCH   7   9
ENDBRANCH   5   6
BRANCH   5  43
ATOM     43  CB  TYR     5      10.511 -27.344  -1.123  1.00  0.00     0.060 C 
BRANCH  43  44
ATOM     44  CG  TYR     5       9.074 -26.855  -0.876  1.00  0.00    -0.020 A 
ATOM     45  CD2 TYR     5       8.086 -27.051  -1.833  1.00  0.00    -0.002 A 
ATOM     46  CE2 TYR     5       6.787 -26.612  -1.597  1.00  0.00     0.027 A 
ATOM     47  CZ  TYR     5       6.475 -25.977  -0.405  1.00  0.00     0.131 A 
ATOM     48  CE1 TYR     5       7.454 -25.793   0.565  1.00  0.00     0.027 A 
ATOM     49  OH  TYR     5       5.255 -25.426  -0.226  1.00  0.00    -0.190 OA
ATOM     50  CD1 TYR     5       8.758 -26.226   0.323  1.00  0.00    -0.002 A 
ENDBRANCH  43  44
ENDBRANCH   5  43
ENDBRANCH   3   5
ENDBRANCH   1   2
BRANCH   1  51
ATOM     51  CB  ARG     6      15.161 -27.552   1.472  1.00  0.00     0.036 C 
BRANCH  51  52
ATOM     52  CG  ARG     6      15.408 -28.223   0.118  1.00  0.00     0.029 C 
BRANCH  52  53
ATOM     53  CD  ARG     6      16.470 -27.458  -0.668  1.00  0.00     0.145 C 
BRANCH  53  54
ATOM     54  NE  ARG     6      17.012 -26.342   0.126  1.00  0.00    -0.083 NA
ATOM     55  CZ  ARG     6      17.374 -25.140  -0.361  1.00  0.00     0.782 C 
ATOM     56  NH2 ARG     6      17.934 -24.227   0.435  1.00  0.00     0.063 N 
ATOM     57  NH1 ARG     6      17.259 -24.880  -1.659  1.00  0.00     0.063 N 
ENDBRANCH  53  54
ENDBRANCH  52  53
ENDBRANCH  51  52
ENDBRANCH   1  51
BRANCH   1  58
ATOM     58  C   ARG     6      14.002 -25.391   1.526  1.00  0.00     0.274 C 
ATOM     59  N   ASN     7      13.766 -24.826   0.346  1.00  0.00    -0.228 NA
ATOM     60  O   ARG     6      14.376 -24.792   2.536  1.00  0.00    -0.268 OA
BRANCH  59  61
ATOM     61  CA  ASN     7      13.827 -23.368   0.114  1.00  0.00     0.196 C 
BRANCH  61  62
ATOM     62  C   ASN     7      12.491 -22.682   0.463  1.00  0.00     0.275 C 
ATOM     63  N   PHE     8      12.376 -22.170   1.697  1.00  0.00    -0.228 NA
ATOM     64  O   ASN     7      11.802 -22.307  -0.466  1.00  0.00    -0.268 OA
BRANCH  63  65
ATOM     65  CA  PHE     8      11.208 -21.400   2.190  1.00  0.00     0.191 C 
BRANCH  65  66
ATOM     66  CB  PHE     8      10.923 -21.834   3.635  1.00  0.00     0.060 C 
BRANCH  66  67
ATOM     67  CG  PHE     8      11.211 -23.319   3.923  1.00  0.00    -0.020 A 
ATOM     68  CD1 PHE     8      10.603 -24.303   3.155  1.00  0.00    -0.004 A 
ATOM     69  CE1 PHE     8      10.784 -25.648   3.480  1.00  0.00    -0.000 A 
ATOM     70  CZ  PHE     8      11.582 -25.993   4.559  1.00  0.00    -0.000 A 
ATOM     71  CE2 PHE     8      12.202 -25.008   5.322  1.00  0.00    -0.000 A 
ATOM     72  CD2 PHE     8      12.021 -23.664   4.996  1.00  0.00    -0.004 A 
ENDBRANCH  66  67
ENDBRANCH  65  66
BRANCH  65  73
ATOM     73  C   PHE     8      11.339 -19.865   2.070  1.00  0.00     0.275 C 
ATOM     74  N   TRP     9      11.246 -19.171   3.205  1.00  0.00    -0.228 NA
ATOM     75  O   PHE     8      11.277 -19.308   0.971  1.00  0.00    -0.268 OA
BRANCH  74  76
ATOM     76  CA  TRP     9      11.475 -17.706   3.253  1.00  0.00     0.191 C 
BRANCH  76  77
ATOM     77  CB  TRP     9      10.116 -16.988   3.201  1.00  0.00     0.062 C 
BRANCH  77  78
ATOM     78  CG  TRP     9       9.918 -16.167   1.928  1.00  0.00     0.001 A 
ATOM     79  CD1 TRP     9      10.758 -15.255   1.448  1.00  0.00     0.095 A 
ATOM     80  NE1 TRP     9      10.152 -14.535   0.513  1.00  0.00    -0.244 NA
ATOM     81  CE2 TRP     9       8.913 -14.974   0.349  1.00  0.00     0.081 A 
ATOM     82  CD2 TRP     9       8.715 -16.012   1.246  1.00  0.00     0.015 A 
ATOM     83  CZ2 TRP     9       7.844 -14.524  -0.425  1.00  0.00     0.019 A 
ATOM     84  CE3 TRP     9       7.465 -16.595   1.393  1.00  0.00     0.001 A 
ATOM     85  CZ3 TRP     9       6.395 -16.139   0.631  1.00  0.00     0.000 A 
ATOM     86  CH2 TRP     9       6.596 -15.114  -0.291  1.00  0.00     0.002 A 
ENDBRANCH  77  78
ENDBRANCH  76  77
BRANCH  76  87
ATOM     87  C   TRP     9      12.325 -17.229   4.453  1.00  0.00     0.275 C 
ATOM     88  O   TRP     9      11.800 -16.691   5.423  1.00  0.00    -0.268 OA
ATOM     89  N   GLY    10      13.623 -17.526   4.409  1.00  0.00    -0.226 NA
BRANCH  89  90
ATOM     90  CA  GLY    10      14.597 -17.191   5.485  1.00  0.00     0.218 C 
BRANCH  90  91
ATOM     91  C   GLY    10      15.624 -16.095   5.159  1.00  0.00     0.277 C 
ATOM     92  N   CYS    11      16.223 -16.218   3.975  1.00  0.00    -0.228 NA
ATOM     93  O   GLY    10      15.968 -15.288   6.015  1.00  0.00    -0.268 OA
BRANCH  92  94
ATOM     94  CA  CYS    11      17.230 -15.300   3.397  1.00  0.00     0.198 C 
BRANCH  94  95
ATOM     95  C   CYS    11      16.851 -15.040   1.925  1.00  0.00     0.275 C 
ATOM     96  O   CYS    11      17.237 -14.010   1.384  1.00  0.00    -0.268 OA
ATOM     97  N   GLY    12      15.957 -15.865   1.400  1.00  0.00    -0.225 NA
BRANCH  97  98
ATOM     98  CA  GLY    12      15.474 -15.749   0.015  1.00  0.00     0.226 C 
BRANCH  98  99
ATOM     99  C   GLY    12      14.244 -16.673  -0.141  1.00  0.00     0.211 C 
ATOM    100  O1  GLY    12      13.720 -16.725  -1.283  1.00  0.00    -0.646 OA
ATOM    101  O2  GLY    12      13.879 -17.325   0.854  1.00  0.00    -0.646 OA
ENDBRANCH  98  99
ENDBRANCH  97  98
ENDBRANCH  94  95
BRANCH  94 102
ATOM    102  CB  CYS    11      18.597 -15.978   3.357  1.00  0.00     0.103 C 
ATOM    103  SG  CYS    11      18.599 -17.804   3.527  1.00  0.00    -0.080 SA
ENDBRANCH  94 102
ENDBRANCH  92  94
ENDBRANCH  90  91
ENDBRANCH  89  90
ENDBRANCH  76  87
ENDBRANCH  74  76
ENDBRANCH  65  73
ENDBRANCH  63  65
ENDBRANCH  61  62
BRANCH  61 104
ATOM    104  CB  ASN     7      14.242 -23.051  -1.329  1.00  0.00     0.126 C 
BRANCH 104 105
ATOM    105  CG  ASN     7      15.195 -21.850  -1.478  1.00  0.00     0.276 C 
ATOM    106  ND2 ASN     7      15.847 -21.493  -0.396  1.00  0.00    -0.107 N 
ATOM    107  OD1 ASN     7      15.267 -21.129  -2.465  1.00  0.00    -0.269 OA
ENDBRANCH 104 105
ENDBRANCH  61 104
ENDBRANCH  59  61
ENDBRANCH   1  58
TORSDOF 42
ENDMDL
