MODEL 1
REMARK VINA RESULT:      -6.2      0.000      0.000
REMARK WARNING: 32 MAX_TORS EXCEEDED!!!
REMARK  42 active torsions:
REMARK  status: ('A' for Active; 'I' for Inactive)
REMARK    1  A    between atoms: CA_2  and  CB_3 
REMARK    2  A    between atoms: CA_2  and  C_11 
REMARK    3  A    between atoms: CB_3  and  CG_4 
REMARK       I    between atoms: C_11  and  N_13 
REMARK    4  A    between atoms: N_13  and  CA_14 
REMARK    5  A    between atoms: CA_14  and  CB_15 
REMARK    6  A    between atoms: CA_14  and  C_19 
REMARK    7  A    between atoms: CB_15  and  CG_16 
REMARK       I    between atoms: C_19  and  N_21 
REMARK    8  A    between atoms: CA_22  and  C_26 
REMARK       I    between atoms: C_26  and  N_28 
REMARK    9  A    between atoms: N_28  and  CA_29 
REMARK   10  A    between atoms: CA_29  and  C_35 
REMARK   11  A    between atoms: CA_29  and  CB_30 
REMARK   12  A    between atoms: CB_30  and  CG_31 
REMARK   13  A    between atoms: CG_31  and  CD_32 
REMARK       I    between atoms: C_35  and  N_37 
REMARK   14  A    between atoms: N_37  and  CA_38 
REMARK   15  A    between atoms: CA_38  and  CB_39 
REMARK   16  A    between atoms: CA_38  and  C_47 
REMARK   17  A    between atoms: CB_39  and  CG_40 
REMARK       I    between atoms: C_47  and  N_49 
REMARK   18  A    between atoms: N_49  and  CA_50 
REMARK   19  A    between atoms: CA_50  and  CB_51 
REMARK   20  A    between atoms: CA_50  and  C_58 
REMARK   21  A    between atoms: CB_51  and  CG_52 
REMARK   22  A    between atoms: CG_52  and  CD_53 
REMARK   23  A    between atoms: CD_53  and  NE_54 
REMARK       I    between atoms: C_58  and  N_60 
REMARK   24  A    between atoms: N_60  and  CA_61 
REMARK   25  A    between atoms: CA_61  and  C_66 
REMARK   26  A    between atoms: CA_61  and  CB_62 
REMARK   27  A    between atoms: CB_62  and  CG_63 
REMARK       I    between atoms: C_66  and  N_68 
REMARK   28  A    between atoms: N_68  and  CA_69 
REMARK   29  A    between atoms: CA_69  and  CB_70 
REMARK   30  A    between atoms: CA_69  and  C_77 
REMARK   31  A    between atoms: CB_70  and  CG_71 
REMARK       I    between atoms: C_77  and  N_79 
REMARK   32  A    between atoms: N_79  and  CA_80 
REMARK   33  A    between atoms: CA_80  and  CB_81 
REMARK   34  A    between atoms: CA_80  and  C_91 
REMARK   35  A    between atoms: CB_81  and  CG_82 
REMARK       I    between atoms: C_91  and  N_93 
REMARK   36  A    between atoms: N_93  and  CA_94 
REMARK   37  A    between atoms: CA_94  and  C_95 
REMARK       I    between atoms: C_95  and  N_97 
REMARK   38  A    between atoms: N_97  and  CA_98 
REMARK   39  A    between atoms: CA_98  and  C_101 
REMARK   40  A    between atoms: CA_98  and  CB_99 
REMARK       I    between atoms: C_101  and  N_103 
REMARK   41  A    between atoms: N_103  and  CA_104 
REMARK   42  A    between atoms: CA_104  and  C_105 
ROOT
ATOM      1  CA  ARG     6      -3.411 -20.958   5.582  1.00  0.00     0.186 C 
ENDROOT
BRANCH   1   2
ATOM      2  N   ARG     6      -3.009 -22.365   5.812  1.00  0.00    -0.229 NA
ATOM      3  C   TYR     5      -2.419 -23.107   4.866  1.00  0.00     0.275 C 
ATOM      4  O   TYR     5      -2.145 -22.658   3.753  1.00  0.00    -0.268 OA
BRANCH   3   5
ATOM      5  CA  TYR     5      -1.986 -24.529   5.259  1.00  0.00     0.191 C 
BRANCH   5   6
ATOM      6  N   TYR     5      -2.044 -25.499   4.135  1.00  0.00    -0.228 NA
ATOM      7  C   GLU     4      -2.733 -26.650   4.195  1.00  0.00     0.274 C 
ATOM      8  O   GLU     4      -3.480 -26.926   5.125  1.00  0.00    -0.268 OA
BRANCH   7   9
ATOM      9  CA  GLU     4      -2.800 -27.468   2.888  1.00  0.00     0.187 C 
BRANCH   9  10
ATOM     10  CB  GLU     4      -2.062 -26.719   1.767  1.00  0.00     0.045 C 
BRANCH  10  11
ATOM     11  CG  GLU     4      -0.793 -27.403   1.209  1.00  0.00     0.100 C 
BRANCH  11  12
ATOM     12  CD  GLU     4      -0.302 -26.829  -0.119  1.00  0.00     0.185 C 
ATOM     13  OE1 GLU     4      -1.098 -26.094  -0.761  1.00  0.00    -0.647 OA
ATOM     14  OE2 GLU     4       0.603 -27.459  -0.702  1.00  0.00    -0.647 OA
ENDBRANCH  11  12
ENDBRANCH  10  11
ENDBRANCH   9  10
BRANCH   9  15
ATOM     15  N   GLU     4      -4.180 -27.741   2.443  1.00  0.00    -0.229 NA
ATOM     16  C   PRO     3      -4.589 -28.620   1.535  1.00  0.00     0.272 C 
ATOM     17  O   PRO     3      -3.924 -29.599   1.194  1.00  0.00    -0.269 OA
BRANCH  16  18
ATOM     18  CA  PRO     3      -6.100 -28.659   1.299  1.00  0.00     0.165 C 
ATOM     19  N   PRO     3      -6.520 -28.366  -0.088  1.00  0.00    -0.312 N 
ATOM     20  CD  PRO     3      -7.628 -29.274  -0.477  1.00  0.00     0.105 C 
ATOM     21  C   ASP     2      -6.060 -27.326  -0.809  1.00  0.00     0.257 C 
ATOM     22  CG  PRO     3      -8.008 -29.990   0.828  1.00  0.00     0.027 C 
ATOM     23  CB  PRO     3      -6.701 -30.026   1.616  1.00  0.00     0.034 C 
ATOM     24  O   ASP     2      -5.408 -26.424  -0.261  1.00  0.00    -0.270 OA
BRANCH  21  25
ATOM     25  CA  ASP     2      -6.634 -27.066  -2.220  1.00  0.00     0.195 C 
BRANCH  25  26
ATOM     26  CB  ASP     2      -5.789 -27.583  -3.413  1.00  0.00     0.132 C 
BRANCH  26  27
ATOM     27  CG  ASP     2      -6.617 -28.552  -4.278  1.00  0.00     0.188 C 
ATOM     28  OD2 ASP     2      -7.649 -28.062  -4.803  1.00  0.00    -0.647 OA
ATOM     29  OD1 ASP     2      -6.581 -29.766  -3.957  1.00  0.00    -0.647 OA
ENDBRANCH  26  27
ENDBRANCH  25  26
BRANCH  25  30
ATOM     30  N   ASP     2      -6.752 -25.628  -2.513  1.00  0.00    -0.228 NA
ATOM     31  C   TYR     1      -7.858 -24.921  -2.545  1.00  0.00     0.289 C 
ATOM     32  O   TYR     1      -8.994 -25.271  -2.210  1.00  0.00    -0.268 OA
BRANCH  31  33
ATOM     33  CA  TYR     1      -7.624 -23.518  -3.096  1.00  0.00     0.385 C 
ATOM     34  N   TYR     1      -8.402 -23.386  -4.339  1.00  0.00     0.626 N 
BRANCH  33  35
ATOM     35  CB  TYR     1      -8.066 -22.528  -2.021  1.00  0.00     0.075 C 
BRANCH  35  36
ATOM     36  CG  TYR     1      -7.321 -22.713  -0.690  1.00  0.00    -0.019 A 
ATOM     37  CD2 TYR     1      -5.963 -22.989  -0.654  1.00  0.00    -0.002 A 
ATOM     38  CE2 TYR     1      -5.289 -23.017   0.558  1.00  0.00     0.027 A 
ATOM     39  CZ  TYR     1      -5.996 -22.773   1.735  1.00  0.00     0.131 A 
ATOM     40  CE1 TYR     1      -7.359 -22.539   1.695  1.00  0.00     0.027 A 
ATOM     41  OH  TYR     1      -5.337 -22.609   2.899  1.00  0.00    -0.190 OA
ATOM     42  CD1 TYR     1      -8.033 -22.511   0.483  1.00  0.00    -0.002 A 
ENDBRANCH  35  36
ENDBRANCH  33  35
ENDBRANCH  31  33
ENDBRANCH  25  30
ENDBRANCH  21  25
ENDBRANCH  16  18
ENDBRANCH   9  15
ENDBRANCH   7   9
ENDBRANCH   5   6
BRANCH   5  43
ATOM     43  CB  TYR     5      -0.577 -24.523   5.878  1.00  0.00     0.060 C 
BRANCH  43  44
ATOM     44  CG  TYR     5      -0.605 -24.785   7.393  1.00  0.00    -0.020 A 
ATOM     45  CD2 TYR     5      -0.390 -26.062   7.894  1.00  0.00    -0.002 A 
ATOM     46  CE2 TYR     5      -0.410 -26.288   9.267  1.00  0.00     0.027 A 
ATOM     47  CZ  TYR     5      -0.643 -25.236  10.139  1.00  0.00     0.131 A 
ATOM     48  CE1 TYR     5      -0.840 -23.951   9.647  1.00  0.00     0.027 A 
ATOM     49  OH  TYR     5      -0.801 -25.470  11.460  1.00  0.00    -0.190 OA
ATOM     50  CD1 TYR     5      -0.829 -23.729   8.269  1.00  0.00    -0.002 A 
ENDBRANCH  43  44
ENDBRANCH   5  43
ENDBRANCH   3   5
ENDBRANCH   1   2
BRANCH   1  51
ATOM     51  CB  ARG     6      -4.767 -20.621   6.192  1.00  0.00     0.036 C 
BRANCH  51  52
ATOM     52  CG  ARG     6      -5.692 -21.831   6.342  1.00  0.00     0.029 C 
BRANCH  52  53
ATOM     53  CD  ARG     6      -7.067 -21.525   5.755  1.00  0.00     0.145 C 
BRANCH  53  54
ATOM     54  NE  ARG     6      -7.463 -20.135   6.035  1.00  0.00    -0.083 NA
ATOM     55  CZ  ARG     6      -8.299 -19.743   7.015  1.00  0.00     0.782 C 
ATOM     56  NH2 ARG     6      -8.657 -18.462   7.129  1.00  0.00     0.063 N 
ATOM     57  NH1 ARG     6      -8.847 -20.640   7.828  1.00  0.00     0.063 N 
ENDBRANCH  53  54
ENDBRANCH  52  53
ENDBRANCH  51  52
ENDBRANCH   1  51
BRANCH   1  58
ATOM     58  C   ARG     6      -2.406 -19.958   6.168  1.00  0.00     0.274 C 
ATOM     59  N   ASN     7      -2.512 -19.730   7.474  1.00  0.00    -0.228 NA
ATOM     60  O   ARG     6      -1.580 -19.429   5.422  1.00  0.00    -0.268 OA
BRANCH  59  61
ATOM     61  CA  ASN     7      -1.574 -18.877   8.232  1.00  0.00     0.196 C 
BRANCH  61  62
ATOM     62  C   ASN     7      -0.429 -19.702   8.851  1.00  0.00     0.275 C 
ATOM     63  N   PHE     8       0.682 -19.848   8.114  1.00  0.00    -0.228 NA
ATOM     64  O   ASN     7      -0.432 -19.833  10.060  1.00  0.00    -0.268 OA
BRANCH  63  65
ATOM     65  CA  PHE     8       1.918 -20.531   8.569  1.00  0.00     0.191 C 
BRANCH  65  66
ATOM     66  CB  PHE     8       2.470 -21.355   7.398  1.00  0.00     0.060 C 
BRANCH  66  67
ATOM     67  CG  PHE     8       2.685 -22.847   7.715  1.00  0.00    -0.020 A 
ATOM     68  CD1 PHE     8       2.727 -23.275   9.035  1.00  0.00    -0.004 A 
ATOM     69  CE1 PHE     8       3.023 -24.607   9.324  1.00  0.00    -0.000 A 
ATOM     70  CZ  PHE     8       3.259 -25.499   8.290  1.00  0.00    -0.000 A 
ATOM     71  CE2 PHE     8       3.204 -25.075   6.966  1.00  0.00    -0.000 A 
ATOM     72  CD2 PHE     8       2.908 -23.743   6.678  1.00  0.00    -0.004 A 
ENDBRANCH  66  67
ENDBRANCH  65  66
BRANCH  65  73
ATOM     73  C   PHE     8       2.995 -19.600   9.170  1.00  0.00     0.275 C 
ATOM     74  N   TRP     9       4.081 -19.389   8.425  1.00  0.00    -0.228 NA
ATOM     75  O   PHE     8       2.965 -19.283  10.362  1.00  0.00    -0.268 OA
BRANCH  74  76
ATOM     76  CA  TRP     9       5.134 -18.424   8.823  1.00  0.00     0.191 C 
BRANCH  76  77
ATOM     77  CB  TRP     9       6.466 -19.177   8.975  1.00  0.00     0.062 C 
BRANCH  77  78
ATOM     78  CG  TRP     9       6.317 -20.528   9.675  1.00  0.00     0.001 A 
ATOM     79  CD1 TRP     9       6.419 -20.745  10.983  1.00  0.00     0.095 A 
ATOM     80  NE1 TRP     9       6.531 -22.047  11.214  1.00  0.00    -0.244 NA
ATOM     81  CE2 TRP     9       6.484 -22.706  10.066  1.00  0.00     0.081 A 
ATOM     82  CD2 TRP     9       6.361 -21.770   9.051  1.00  0.00     0.015 A 
ATOM     83  CZ2 TRP     9       6.642 -24.053   9.741  1.00  0.00     0.019 A 
ATOM     84  CE3 TRP     9       6.409 -22.156   7.719  1.00  0.00     0.001 A 
ATOM     85  CZ3 TRP     9       6.579 -23.497   7.393  1.00  0.00     0.000 A 
ATOM     86  CH2 TRP     9       6.676 -24.444   8.410  1.00  0.00     0.002 A 
ENDBRANCH  77  78
ENDBRANCH  76  77
BRANCH  76  87
ATOM     87  C   TRP     9       5.274 -17.204   7.884  1.00  0.00     0.275 C 
ATOM     88  O   TRP     9       4.317 -16.469   7.660  1.00  0.00    -0.268 OA
ATOM     89  N   GLY    10       6.500 -16.951   7.427  1.00  0.00    -0.226 NA
BRANCH  89  90
ATOM     90  CA  GLY    10       6.846 -15.800   6.548  1.00  0.00     0.218 C 
BRANCH  90  91
ATOM     91  C   GLY    10       8.340 -15.462   6.424  1.00  0.00     0.277 C 
ATOM     92  N   CYS    11       9.163 -16.506   6.509  1.00  0.00    -0.228 NA
ATOM     93  O   GLY    10       8.717 -14.295   6.424  1.00  0.00    -0.268 OA
BRANCH  92  94
ATOM     94  CA  CYS    11      10.639 -16.476   6.402  1.00  0.00     0.198 C 
BRANCH  94  95
ATOM     95  C   CYS    11      11.069 -17.587   5.423  1.00  0.00     0.275 C 
ATOM     96  O   CYS    11      11.717 -18.537   5.848  1.00  0.00    -0.268 OA
ATOM     97  N   GLY    12      10.876 -17.335   4.137  1.00  0.00    -0.225 NA
BRANCH  97  98
ATOM     98  CA  GLY    12      11.245 -18.280   3.071  1.00  0.00     0.226 C 
BRANCH  98  99
ATOM     99  C   GLY    12      11.432 -17.476   1.763  1.00  0.00     0.211 C 
ATOM    100  O1  GLY    12      12.462 -16.761   1.684  1.00  0.00    -0.646 OA
ATOM    101  O2  GLY    12      10.576 -17.616   0.869  1.00  0.00    -0.646 OA
ENDBRANCH  98  99
ENDBRANCH  97  98
ENDBRANCH  94  95
BRANCH  94 102
ATOM    102  CB  CYS    11      11.271 -16.842   7.743  1.00  0.00     0.103 C 
ATOM    103  SG  CYS    11      10.752 -15.831   9.183  1.00  0.00    -0.080 SA
ENDBRANCH  94 102
ENDBRANCH  92  94
ENDBRANCH  90  91
ENDBRANCH  89  90
ENDBRANCH  76  87
ENDBRANCH  74  76
ENDBRANCH  65  73
ENDBRANCH  63  65
ENDBRANCH  61  62
BRANCH  61 104
ATOM    104  CB  ASN     7      -2.305 -18.065   9.308  1.00  0.00     0.126 C 
BRANCH 104 105
ATOM    105  CG  ASN     7      -1.797 -16.622   9.488  1.00  0.00     0.276 C 
ATOM    106  ND2 ASN     7      -0.968 -16.423  10.488  1.00  0.00    -0.107 N 
ATOM    107  OD1 ASN     7      -2.220 -15.647   8.880  1.00  0.00    -0.269 OA
ENDBRANCH 104 105
ENDBRANCH  61 104
ENDBRANCH  59  61
ENDBRANCH   1  58
TORSDOF 42
ENDMDL
MODEL 2
REMARK VINA RESULT:      -6.0      4.679     11.986
REMARK WARNING: 32 MAX_TORS EXCEEDED!!!
REMARK  42 active torsions:
REMARK  status: ('A' for Active; 'I' for Inactive)
REMARK    1  A    between atoms: CA_2  and  CB_3 
REMARK    2  A    between atoms: CA_2  and  C_11 
REMARK    3  A    between atoms: CB_3  and  CG_4 
REMARK       I    between atoms: C_11  and  N_13 
REMARK    4  A    between atoms: N_13  and  CA_14 
REMARK    5  A    between atoms: CA_14  and  CB_15 
REMARK    6  A    between atoms: CA_14  and  C_19 
REMARK    7  A    between atoms: CB_15  and  CG_16 
REMARK       I    between atoms: C_19  and  N_21 
REMARK    8  A    between atoms: CA_22  and  C_26 
REMARK       I    between atoms: C_26  and  N_28 
REMARK    9  A    between atoms: N_28  and  CA_29 
REMARK   10  A    between atoms: CA_29  and  C_35 
REMARK   11  A    between atoms: CA_29  and  CB_30 
REMARK   12  A    between atoms: CB_30  and  CG_31 
REMARK   13  A    between atoms: CG_31  and  CD_32 
REMARK       I    between atoms: C_35  and  N_37 
REMARK   14  A    between atoms: N_37  and  CA_38 
REMARK   15  A    between atoms: CA_38  and  CB_39 
REMARK   16  A    between atoms: CA_38  and  C_47 
REMARK   17  A    between atoms: CB_39  and  CG_40 
REMARK       I    between atoms: C_47  and  N_49 
REMARK   18  A    between atoms: N_49  and  CA_50 
REMARK   19  A    between atoms: CA_50  and  CB_51 
REMARK   20  A    between atoms: CA_50  and  C_58 
REMARK   21  A    between atoms: CB_51  and  CG_52 
REMARK   22  A    between atoms: CG_52  and  CD_53 
REMARK   23  A    between atoms: CD_53  and  NE_54 
REMARK       I    between atoms: C_58  and  N_60 
REMARK   24  A    between atoms: N_60  and  CA_61 
REMARK   25  A    between atoms: CA_61  and  C_66 
REMARK   26  A    between atoms: CA_61  and  CB_62 
REMARK   27  A    between atoms: CB_62  and  CG_63 
REMARK       I    between atoms: C_66  and  N_68 
REMARK   28  A    between atoms: N_68  and  CA_69 
REMARK   29  A    between atoms: CA_69  and  CB_70 
REMARK   30  A    between atoms: CA_69  and  C_77 
REMARK   31  A    between atoms: CB_70  and  CG_71 
REMARK       I    between atoms: C_77  and  N_79 
REMARK   32  A    between atoms: N_79  and  CA_80 
REMARK   33  A    between atoms: CA_80  and  CB_81 
REMARK   34  A    between atoms: CA_80  and  C_91 
REMARK   35  A    between atoms: CB_81  and  CG_82 
REMARK       I    between atoms: C_91  and  N_93 
REMARK   36  A    between atoms: N_93  and  CA_94 
REMARK   37  A    between atoms: CA_94  and  C_95 
REMARK       I    between atoms: C_95  and  N_97 
REMARK   38  A    between atoms: N_97  and  CA_98 
REMARK   39  A    between atoms: CA_98  and  C_101 
REMARK   40  A    between atoms: CA_98  and  CB_99 
REMARK       I    between atoms: C_101  and  N_103 
REMARK   41  A    between atoms: N_103  and  CA_104 
REMARK   42  A    between atoms: CA_104  and  C_105 
ROOT
ATOM      1  CA  ARG     6       3.272 -17.837   9.280  1.00  0.00     0.186 C 
ENDROOT
BRANCH   1   2
ATOM      2  N   ARG     6       3.915 -19.170   9.215  1.00  0.00    -0.229 NA
ATOM      3  C   TYR     5       4.893 -19.537  10.053  1.00  0.00     0.275 C 
ATOM      4  O   TYR     5       5.302 -18.801  10.951  1.00  0.00    -0.268 OA
BRANCH   3   5
ATOM      5  CA  TYR     5       5.422 -20.975   9.926  1.00  0.00     0.191 C 
BRANCH   5   6
ATOM      6  N   TYR     5       4.825 -21.728   8.793  1.00  0.00    -0.228 NA
ATOM      7  C   GLU     4       4.643 -23.059   8.811  1.00  0.00     0.274 C 
ATOM      8  O   GLU     4       4.824 -23.737   9.814  1.00  0.00    -0.268 OA
BRANCH   7   9
ATOM      9  CA  GLU     4       3.881 -23.654   7.609  1.00  0.00     0.187 C 
BRANCH   9  10
ATOM     10  CB  GLU     4       2.371 -23.422   7.781  1.00  0.00     0.045 C 
BRANCH  10  11
ATOM     11  CG  GLU     4       1.788 -23.731   9.177  1.00  0.00     0.100 C 
BRANCH  11  12
ATOM     12  CD  GLU     4       1.028 -22.566   9.813  1.00  0.00     0.185 C 
ATOM     13  OE1 GLU     4       1.461 -21.405   9.592  1.00  0.00    -0.647 OA
ATOM     14  OE2 GLU     4       0.368 -22.822  10.840  1.00  0.00    -0.647 OA
ENDBRANCH  11  12
ENDBRANCH  10  11
ENDBRANCH   9  10
BRANCH   9  15
ATOM     15  N   GLU     4       4.118 -25.099   7.427  1.00  0.00    -0.229 NA
ATOM     16  C   PRO     3       5.201 -25.699   6.946  1.00  0.00     0.272 C 
ATOM     17  O   PRO     3       6.313 -25.169   6.923  1.00  0.00    -0.269 OA
BRANCH  16  18
ATOM     18  CA  PRO     3       5.129 -27.226   6.885  1.00  0.00     0.165 C 
ATOM     19  N   PRO     3       5.339 -27.804   5.540  1.00  0.00    -0.312 N 
ATOM     20  CD  PRO     3       6.174 -29.028   5.648  1.00  0.00     0.105 C 
ATOM     21  C   ASP     2       4.726 -27.361   4.428  1.00  0.00     0.257 C 
ATOM     22  CG  PRO     3       6.278 -29.284   7.159  1.00  0.00     0.027 C 
ATOM     23  CB  PRO     3       6.179 -27.890   7.772  1.00  0.00     0.034 C 
ATOM     24  O   ASP     2       3.776 -26.567   4.510  1.00  0.00    -0.270 OA
BRANCH  21  25
ATOM     25  CA  ASP     2       4.955 -28.098   3.088  1.00  0.00     0.195 C 
BRANCH  25  26
ATOM     26  CB  ASP     2       5.903 -27.406   2.075  1.00  0.00     0.132 C 
BRANCH  26  27
ATOM     27  CG  ASP     2       7.208 -28.211   1.924  1.00  0.00     0.188 C 
ATOM     28  OD2 ASP     2       7.994 -27.804   1.031  1.00  0.00    -0.647 OA
ATOM     29  OD1 ASP     2       7.156 -29.431   2.220  1.00  0.00    -0.647 OA
ENDBRANCH  26  27
ENDBRANCH  25  26
BRANCH  25  30
ATOM     30  N   ASP     2       3.710 -28.239   2.314  1.00  0.00    -0.228 NA
ATOM     31  C   TYR     1       2.734 -29.087   2.544  1.00  0.00     0.289 C 
ATOM     32  O   TYR     1       2.591 -29.835   3.516  1.00  0.00    -0.268 OA
BRANCH  31  33
ATOM     33  CA  TYR     1       1.709 -29.098   1.414  1.00  0.00     0.385 C 
ATOM     34  N   TYR     1       1.638 -30.470   0.885  1.00  0.00     0.626 N 
BRANCH  33  35
ATOM     35  CB  TYR     1       0.380 -28.628   2.001  1.00  0.00     0.075 C 
BRANCH  35  36
ATOM     36  CG  TYR     1       0.027 -27.185   1.607  1.00  0.00    -0.019 A 
ATOM     37  CD2 TYR     1      -0.491 -26.884   0.357  1.00  0.00    -0.002 A 
ATOM     38  CE2 TYR     1      -0.928 -25.598   0.075  1.00  0.00     0.027 A 
ATOM     39  CZ  TYR     1      -0.832 -24.616   1.060  1.00  0.00     0.131 A 
ATOM     40  CE1 TYR     1      -0.276 -24.914   2.291  1.00  0.00     0.027 A 
ATOM     41  OH  TYR     1      -1.417 -23.415   0.879  1.00  0.00    -0.190 OA
ATOM     42  CD1 TYR     1       0.160 -26.200   2.573  1.00  0.00    -0.002 A 
ENDBRANCH  35  36
ENDBRANCH  33  35
ENDBRANCH  31  33
ENDBRANCH  25  30
ENDBRANCH  21  25
ENDBRANCH  16  18
ENDBRANCH   9  15
ENDBRANCH   7   9
ENDBRANCH   5   6
BRANCH   5  43
ATOM     43  CB  TYR     5       6.956 -20.989   9.819  1.00  0.00     0.060 C 
BRANCH  43  44
ATOM     44  CG  TYR     5       7.462 -20.209   8.594  1.00  0.00    -0.020 A 
ATOM     45  CD2 TYR     5       7.207 -20.667   7.308  1.00  0.00    -0.002 A 
ATOM     46  CE2 TYR     5       7.663 -19.950   6.206  1.00  0.00     0.027 A 
ATOM     47  CZ  TYR     5       8.374 -18.775   6.390  1.00  0.00     0.131 A 
ATOM     48  CE1 TYR     5       8.619 -18.300   7.673  1.00  0.00     0.027 A 
ATOM     49  OH  TYR     5       8.939 -18.149   5.334  1.00  0.00    -0.190 OA
ATOM     50  CD1 TYR     5       8.168 -19.025   8.777  1.00  0.00    -0.002 A 
ENDBRANCH  43  44
ENDBRANCH   5  43
ENDBRANCH   3   5
ENDBRANCH   1   2
BRANCH   1  51
ATOM     51  CB  ARG     6       2.928 -17.276   7.904  1.00  0.00     0.036 C 
BRANCH  51  52
ATOM     52  CG  ARG     6       4.131 -17.172   6.964  1.00  0.00     0.029 C 
BRANCH  52  53
ATOM     53  CD  ARG     6       4.691 -15.753   6.972  1.00  0.00     0.145 C 
BRANCH  53  54
ATOM     54  NE  ARG     6       6.093 -15.736   6.521  1.00  0.00    -0.083 NA
ATOM     55  CZ  ARG     6       7.086 -15.021   7.084  1.00  0.00     0.782 C 
ATOM     56  NH2 ARG     6       8.306 -15.014   6.543  1.00  0.00     0.063 N 
ATOM     57  NH1 ARG     6       6.842 -14.246   8.134  1.00  0.00     0.063 N 
ENDBRANCH  53  54
ENDBRANCH  52  53
ENDBRANCH  51  52
ENDBRANCH   1  51
BRANCH   1  58
ATOM     58  C   ARG     6       1.968 -17.853  10.087  1.00  0.00     0.274 C 
ATOM     59  N   ASN     7       0.847 -17.871   9.370  1.00  0.00    -0.228 NA
ATOM     60  O   ARG     6       2.021 -17.844  11.317  1.00  0.00    -0.268 OA
BRANCH  59  61
ATOM     61  CA  ASN     7      -0.500 -17.986   9.968  1.00  0.00     0.196 C 
BRANCH  61  62
ATOM     62  C   ASN     7      -1.422 -18.883   9.118  1.00  0.00     0.275 C 
ATOM     63  N   PHE     8      -0.909 -19.377   7.981  1.00  0.00    -0.228 NA
ATOM     64  O   ASN     7      -2.370 -19.394   9.682  1.00  0.00    -0.268 OA
BRANCH  63  65
ATOM     65  CA  PHE     8      -1.607 -20.323   7.077  1.00  0.00     0.191 C 
BRANCH  65  66
ATOM     66  CB  PHE     8      -1.972 -21.577   7.883  1.00  0.00     0.060 C 
BRANCH  66  67
ATOM     67  CG  PHE     8      -1.492 -22.899   7.255  1.00  0.00    -0.020 A 
ATOM     68  CD1 PHE     8      -1.662 -24.094   7.941  1.00  0.00    -0.004 A 
ATOM     69  CE1 PHE     8      -1.137 -25.275   7.419  1.00  0.00    -0.000 A 
ATOM     70  CZ  PHE     8      -0.461 -25.252   6.209  1.00  0.00    -0.000 A 
ATOM     71  CE2 PHE     8      -0.302 -24.058   5.513  1.00  0.00    -0.000 A 
ATOM     72  CD2 PHE     8      -0.827 -22.877   6.036  1.00  0.00    -0.004 A 
ENDBRANCH  66  67
ENDBRANCH  65  66
BRANCH  65  73
ATOM     73  C   PHE     8      -2.835 -19.739   6.343  1.00  0.00     0.275 C 
ATOM     74  N   TRP     9      -4.013 -19.873   6.956  1.00  0.00    -0.228 NA
ATOM     75  O   PHE     8      -2.765 -19.403   5.158  1.00  0.00    -0.268 OA
BRANCH  74  76
ATOM     76  CA  TRP     9      -5.252 -19.253   6.426  1.00  0.00     0.191 C 
BRANCH  76  77
ATOM     77  CB  TRP     9      -6.388 -20.287   6.484  1.00  0.00     0.062 C 
BRANCH  77  78
ATOM     78  CG  TRP     9      -5.890 -21.731   6.454  1.00  0.00     0.001 A 
ATOM     79  CD1 TRP     9      -5.693 -22.512   7.512  1.00  0.00     0.095 A 
ATOM     80  NE1 TRP     9      -4.988 -23.579   7.157  1.00  0.00    -0.244 NA
ATOM     81  CE2 TRP     9      -4.728 -23.526   5.859  1.00  0.00     0.081 A 
ATOM     82  CD2 TRP     9      -5.275 -22.351   5.370  1.00  0.00     0.015 A 
ATOM     83  CZ2 TRP     9      -3.963 -24.330   5.014  1.00  0.00     0.019 A 
ATOM     84  CE3 TRP     9      -5.059 -21.959   4.057  1.00  0.00     0.001 A 
ATOM     85  CZ3 TRP     9      -4.286 -22.752   3.216  1.00  0.00     0.000 A 
ATOM     86  CH2 TRP     9      -3.756 -23.948   3.697  1.00  0.00     0.002 A 
ENDBRANCH  77  78
ENDBRANCH  76  77
BRANCH  76  87
ATOM     87  C   TRP     9      -5.651 -17.928   7.114  1.00  0.00     0.275 C 
ATOM     88  O   TRP     9      -5.125 -17.582   8.167  1.00  0.00    -0.268 OA
ATOM     89  N   GLY    10      -6.510 -17.156   6.449  1.00  0.00    -0.226 NA
BRANCH  89  90
ATOM     90  CA  GLY    10      -6.982 -15.826   6.924  1.00  0.00     0.218 C 
BRANCH  90  91
ATOM     91  C   GLY    10      -7.608 -14.906   5.863  1.00  0.00     0.277 C 
ATOM     92  N   CYS    11      -8.130 -13.775   6.336  1.00  0.00    -0.228 NA
ATOM     93  O   GLY    10      -7.755 -15.294   4.710  1.00  0.00    -0.268 OA
BRANCH  92  94
ATOM     94  CA  CYS    11      -8.772 -12.702   5.545  1.00  0.00     0.198 C 
BRANCH  94  95
ATOM     95  C   CYS    11      -8.338 -11.346   6.136  1.00  0.00     0.275 C 
ATOM     96  O   CYS    11      -9.126 -10.722   6.837  1.00  0.00    -0.268 OA
ATOM     97  N   GLY    12      -7.198 -10.850   5.678  1.00  0.00    -0.225 NA
BRANCH  97  98
ATOM     98  CA  GLY    12      -6.647  -9.561   6.124  1.00  0.00     0.226 C 
BRANCH  98  99
ATOM     99  C   GLY    12      -5.744  -9.826   7.351  1.00  0.00     0.211 C 
ATOM    100  O1  GLY    12      -5.520  -8.848   8.108  1.00  0.00    -0.646 OA
ATOM    101  O2  GLY    12      -5.331 -10.987   7.527  1.00  0.00    -0.646 OA
ENDBRANCH  98  99
ENDBRANCH  97  98
ENDBRANCH  94  95
BRANCH  94 102
ATOM    102  CB  CYS    11     -10.288 -12.758   5.715  1.00  0.00     0.103 C 
ATOM    103  SG  CYS    11     -11.191 -13.862   4.562  1.00  0.00    -0.080 SA
ENDBRANCH  94 102
ENDBRANCH  92  94
ENDBRANCH  90  91
ENDBRANCH  89  90
ENDBRANCH  76  87
ENDBRANCH  74  76
ENDBRANCH  65  73
ENDBRANCH  63  65
ENDBRANCH  61  62
BRANCH  61 104
ATOM    104  CB  ASN     7      -1.132 -16.606  10.186  1.00  0.00     0.126 C 
BRANCH 104 105
ATOM    105  CG  ASN     7      -0.568 -15.486   9.292  1.00  0.00     0.276 C 
ATOM    106  ND2 ASN     7       0.001 -14.481   9.916  1.00  0.00    -0.107 N 
ATOM    107  OD1 ASN     7      -0.747 -15.395   8.084  1.00  0.00    -0.269 OA
ENDBRANCH 104 105
ENDBRANCH  61 104
ENDBRANCH  59  61
ENDBRANCH   1  58
TORSDOF 42
ENDMDL
MODEL 3
REMARK VINA RESULT:      -5.9      6.539     13.897
REMARK WARNING: 32 MAX_TORS EXCEEDED!!!
REMARK  42 active torsions:
REMARK  status: ('A' for Active; 'I' for Inactive)
REMARK    1  A    between atoms: CA_2  and  CB_3 
REMARK    2  A    between atoms: CA_2  and  C_11 
REMARK    3  A    between atoms: CB_3  and  CG_4 
REMARK       I    between atoms: C_11  and  N_13 
REMARK    4  A    between atoms: N_13  and  CA_14 
REMARK    5  A    between atoms: CA_14  and  CB_15 
REMARK    6  A    between atoms: CA_14  and  C_19 
REMARK    7  A    between atoms: CB_15  and  CG_16 
REMARK       I    between atoms: C_19  and  N_21 
REMARK    8  A    between atoms: CA_22  and  C_26 
REMARK       I    between atoms: C_26  and  N_28 
REMARK    9  A    between atoms: N_28  and  CA_29 
REMARK   10  A    between atoms: CA_29  and  C_35 
REMARK   11  A    between atoms: CA_29  and  CB_30 
REMARK   12  A    between atoms: CB_30  and  CG_31 
REMARK   13  A    between atoms: CG_31  and  CD_32 
REMARK       I    between atoms: C_35  and  N_37 
REMARK   14  A    between atoms: N_37  and  CA_38 
REMARK   15  A    between atoms: CA_38  and  CB_39 
REMARK   16  A    between atoms: CA_38  and  C_47 
REMARK   17  A    between atoms: CB_39  and  CG_40 
REMARK       I    between atoms: C_47  and  N_49 
REMARK   18  A    between atoms: N_49  and  CA_50 
REMARK   19  A    between atoms: CA_50  and  CB_51 
REMARK   20  A    between atoms: CA_50  and  C_58 
REMARK   21  A    between atoms: CB_51  and  CG_52 
REMARK   22  A    between atoms: CG_52  and  CD_53 
REMARK   23  A    between atoms: CD_53  and  NE_54 
REMARK       I    between atoms: C_58  and  N_60 
REMARK   24  A    between atoms: N_60  and  CA_61 
REMARK   25  A    between atoms: CA_61  and  C_66 
REMARK   26  A    between atoms: CA_61  and  CB_62 
REMARK   27  A    between atoms: CB_62  and  CG_63 
REMARK       I    between atoms: C_66  and  N_68 
REMARK   28  A    between atoms: N_68  and  CA_69 
REMARK   29  A    between atoms: CA_69  and  CB_70 
REMARK   30  A    between atoms: CA_69  and  C_77 
REMARK   31  A    between atoms: CB_70  and  CG_71 
REMARK       I    between atoms: C_77  and  N_79 
REMARK   32  A    between atoms: N_79  and  CA_80 
REMARK   33  A    between atoms: CA_80  and  CB_81 
REMARK   34  A    between atoms: CA_80  and  C_91 
REMARK   35  A    between atoms: CB_81  and  CG_82 
REMARK       I    between atoms: C_91  and  N_93 
REMARK   36  A    between atoms: N_93  and  CA_94 
REMARK   37  A    between atoms: CA_94  and  C_95 
REMARK       I    between atoms: C_95  and  N_97 
REMARK   38  A    between atoms: N_97  and  CA_98 
REMARK   39  A    between atoms: CA_98  and  C_101 
REMARK   40  A    between atoms: CA_98  and  CB_99 
REMARK       I    between atoms: C_101  and  N_103 
REMARK   41  A    between atoms: N_103  and  CA_104 
REMARK   42  A    between atoms: CA_104  and  C_105 
ROOT
ATOM      1  CA  ARG     6      -8.761 -21.058   7.061  1.00  0.00     0.186 C 
ENDROOT
BRANCH   1   2
ATOM      2  N   ARG     6      -7.733 -21.649   6.173  1.00  0.00    -0.229 NA
ATOM      3  C   TYR     5      -7.789 -21.543   4.839  1.00  0.00     0.275 C 
ATOM      4  O   TYR     5      -8.685 -20.923   4.265  1.00  0.00    -0.268 OA
BRANCH   3   5
ATOM      5  CA  TYR     5      -6.619 -22.137   4.039  1.00  0.00     0.191 C 
BRANCH   5   6
ATOM      6  N   TYR     5      -5.432 -22.458   4.873  1.00  0.00    -0.228 NA
ATOM      7  C   GLU     4      -4.170 -22.344   4.429  1.00  0.00     0.274 C 
ATOM      8  O   GLU     4      -3.893 -21.834   3.351  1.00  0.00    -0.268 OA
BRANCH   7   9
ATOM      9  CA  GLU     4      -3.060 -22.583   5.473  1.00  0.00     0.187 C 
BRANCH   9  10
ATOM     10  CB  GLU     4      -2.026 -21.447   5.405  1.00  0.00     0.045 C 
BRANCH  10  11
ATOM     11  CG  GLU     4      -1.011 -21.377   6.566  1.00  0.00     0.100 C 
BRANCH  11  12
ATOM     12  CD  GLU     4      -1.178 -20.161   7.476  1.00  0.00     0.185 C 
ATOM     13  OE1 GLU     4      -1.108 -19.024   6.940  1.00  0.00    -0.647 OA
ATOM     14  OE2 GLU     4      -0.903 -20.321   8.683  1.00  0.00    -0.647 OA
ENDBRANCH  11  12
ENDBRANCH  10  11
ENDBRANCH   9  10
BRANCH   9  15
ATOM     15  N   GLU     4      -2.360 -23.869   5.295  1.00  0.00    -0.229 NA
ATOM     16  C   PRO     3      -2.548 -25.004   5.957  1.00  0.00     0.272 C 
ATOM     17  O   PRO     3      -3.586 -25.268   6.566  1.00  0.00    -0.269 OA
BRANCH  16  18
ATOM     18  CA  PRO     3      -1.650 -26.167   5.529  1.00  0.00     0.165 C 
ATOM     19  N   PRO     3      -1.577 -26.391   4.069  1.00  0.00    -0.312 N 
ATOM     20  CD  PRO     3      -0.181 -26.721   3.684  1.00  0.00     0.105 C 
ATOM     21  C   ASP     2      -2.652 -26.440   3.262  1.00  0.00     0.257 C 
ATOM     22  CG  PRO     3       0.550 -26.900   5.024  1.00  0.00     0.027 C 
ATOM     23  CB  PRO     3      -0.202 -25.974   5.975  1.00  0.00     0.034 C 
ATOM     24  O   ASP     2      -3.793 -26.510   3.742  1.00  0.00    -0.270 OA
BRANCH  21  25
ATOM     25  CA  ASP     2      -2.463 -26.767   1.763  1.00  0.00     0.195 C 
BRANCH  25  26
ATOM     26  CB  ASP     2      -2.397 -25.556   0.797  1.00  0.00     0.132 C 
BRANCH  26  27
ATOM     27  CG  ASP     2      -0.939 -25.274   0.388  1.00  0.00     0.188 C 
ATOM     28  OD2 ASP     2      -0.450 -24.204   0.831  1.00  0.00    -0.647 OA
ATOM     29  OD1 ASP     2      -0.564 -25.735  -0.719  1.00  0.00    -0.647 OA
ENDBRANCH  26  27
ENDBRANCH  25  26
BRANCH  25  30
ATOM     30  N   ASP     2      -3.589 -27.546   1.221  1.00  0.00    -0.228 NA
ATOM     31  C   TYR     1      -3.776 -28.840   1.335  1.00  0.00     0.289 C 
ATOM     32  O   TYR     1      -3.137 -29.643   2.022  1.00  0.00    -0.268 OA
BRANCH  31  33
ATOM     33  CA  TYR     1      -4.929 -29.330   0.465  1.00  0.00     0.385 C 
ATOM     34  N   TYR     1      -5.783 -30.197   1.294  1.00  0.00     0.626 N 
BRANCH  33  35
ATOM     35  CB  TYR     1      -5.670 -28.097  -0.047  1.00  0.00     0.075 C 
BRANCH  35  36
ATOM     36  CG  TYR     1      -5.682 -27.996  -1.580  1.00  0.00    -0.019 A 
ATOM     37  CD2 TYR     1      -5.903 -29.109  -2.376  1.00  0.00    -0.002 A 
ATOM     38  CE2 TYR     1      -6.044 -28.968  -3.748  1.00  0.00     0.027 A 
ATOM     39  CZ  TYR     1      -5.953 -27.697  -4.314  1.00  0.00     0.131 A 
ATOM     40  CE1 TYR     1      -5.691 -26.596  -3.519  1.00  0.00     0.027 A 
ATOM     41  OH  TYR     1      -6.270 -27.508  -5.611  1.00  0.00    -0.190 OA
ATOM     42  CD1 TYR     1      -5.551 -26.737  -2.146  1.00  0.00    -0.002 A 
ENDBRANCH  35  36
ENDBRANCH  33  35
ENDBRANCH  31  33
ENDBRANCH  25  30
ENDBRANCH  21  25
ENDBRANCH  16  18
ENDBRANCH   9  15
ENDBRANCH   7   9
ENDBRANCH   5   6
BRANCH   5  43
ATOM     43  CB  TYR     5      -7.066 -23.384   3.256  1.00  0.00     0.060 C 
BRANCH  43  44
ATOM     44  CG  TYR     5      -6.951 -23.189   1.734  1.00  0.00    -0.020 A 
ATOM     45  CD2 TYR     5      -5.851 -23.678   1.040  1.00  0.00    -0.002 A 
ATOM     46  CE2 TYR     5      -5.760 -23.503  -0.337  1.00  0.00     0.027 A 
ATOM     47  CZ  TYR     5      -6.767 -22.840  -1.021  1.00  0.00     0.131 A 
ATOM     48  CE1 TYR     5      -7.880 -22.364  -0.336  1.00  0.00     0.027 A 
ATOM     49  OH  TYR     5      -6.621 -22.545  -2.331  1.00  0.00    -0.190 OA
ATOM     50  CD1 TYR     5      -7.965 -22.532   1.046  1.00  0.00    -0.002 A 
ENDBRANCH  43  44
ENDBRANCH   5  43
ENDBRANCH   3   5
ENDBRANCH   1   2
BRANCH   1  51
ATOM     51  CB  ARG     6      -9.325 -22.060   8.064  1.00  0.00     0.036 C 
BRANCH  51  52
ATOM     52  CG  ARG     6     -10.830 -21.914   8.299  1.00  0.00     0.029 C 
BRANCH  52  53
ATOM     53  CD  ARG     6     -11.241 -22.638   9.578  1.00  0.00     0.145 C 
BRANCH  53  54
ATOM     54  NE  ARG     6     -12.465 -23.429   9.366  1.00  0.00    -0.083 NA
ATOM     55  CZ  ARG     6     -12.504 -24.720   8.987  1.00  0.00     0.782 C 
ATOM     56  NH2 ARG     6     -13.671 -25.320   8.742  1.00  0.00     0.063 N 
ATOM     57  NH1 ARG     6     -11.377 -25.389   8.767  1.00  0.00     0.063 N 
ENDBRANCH  53  54
ENDBRANCH  52  53
ENDBRANCH  51  52
ENDBRANCH   1  51
BRANCH   1  58
ATOM     58  C   ARG     6      -8.224 -19.876   7.876  1.00  0.00     0.274 C 
ATOM     59  N   ASN     7      -7.772 -18.844   7.168  1.00  0.00    -0.228 NA
ATOM     60  O   ARG     6      -8.233 -19.940   9.107  1.00  0.00    -0.268 OA
BRANCH  59  61
ATOM     61  CA  ASN     7      -7.308 -17.580   7.775  1.00  0.00     0.196 C 
BRANCH  61  62
ATOM     62  C   ASN     7      -8.236 -16.403   7.414  1.00  0.00     0.275 C 
ATOM     63  N   PHE     8      -8.530 -16.238   6.116  1.00  0.00    -0.228 NA
ATOM     64  O   ASN     7      -8.935 -15.956   8.303  1.00  0.00    -0.268 OA
BRANCH  63  65
ATOM     65  CA  PHE     8      -9.469 -15.221   5.582  1.00  0.00     0.191 C 
BRANCH  65  66
ATOM     66  CB  PHE     8      -8.665 -14.216   4.746  1.00  0.00     0.060 C 
BRANCH  66  67
ATOM     67  CG  PHE     8      -8.091 -13.035   5.551  1.00  0.00    -0.020 A 
ATOM     68  CD1 PHE     8      -6.769 -13.061   5.973  1.00  0.00    -0.004 A 
ATOM     69  CE1 PHE     8      -6.280 -12.040   6.788  1.00  0.00    -0.000 A 
ATOM     70  CZ  PHE     8      -7.113 -10.997   7.158  1.00  0.00    -0.000 A 
ATOM     71  CE2 PHE     8      -8.434 -10.961   6.725  1.00  0.00    -0.000 A 
ATOM     72  CD2 PHE     8      -8.924 -11.982   5.910  1.00  0.00    -0.004 A 
ENDBRANCH  66  67
ENDBRANCH  65  66
BRANCH  65  73
ATOM     73  C   PHE     8     -10.668 -15.792   4.791  1.00  0.00     0.275 C 
ATOM     74  N   TRP     9     -10.576 -17.068   4.413  1.00  0.00    -0.228 NA
ATOM     75  O   PHE     8     -11.530 -15.046   4.321  1.00  0.00    -0.268 OA
BRANCH  74  76
ATOM     76  CA  TRP     9     -11.702 -17.778   3.757  1.00  0.00     0.191 C 
BRANCH  76  77
ATOM     77  CB  TRP     9     -11.154 -18.585   2.569  1.00  0.00     0.062 C 
BRANCH  77  78
ATOM     78  CG  TRP     9     -11.387 -17.905   1.220  1.00  0.00     0.001 A 
ATOM     79  CD1 TRP     9     -12.103 -16.804   1.015  1.00  0.00     0.095 A 
ATOM     80  NE1 TRP     9     -12.342 -16.660  -0.283  1.00  0.00    -0.244 NA
ATOM     81  CE2 TRP     9     -11.771 -17.651  -0.951  1.00  0.00     0.081 A 
ATOM     82  CD2 TRP     9     -11.158 -18.482  -0.025  1.00  0.00     0.015 A 
ATOM     83  CZ2 TRP     9     -11.787 -18.019  -2.296  1.00  0.00     0.019 A 
ATOM     84  CE3 TRP     9     -10.577 -19.678  -0.419  1.00  0.00     0.001 A 
ATOM     85  CZ3 TRP     9     -10.603 -20.052  -1.758  1.00  0.00     0.000 A 
ATOM     86  CH2 TRP     9     -11.194 -19.208  -2.696  1.00  0.00     0.002 A 
ENDBRANCH  77  78
ENDBRANCH  76  77
BRANCH  76  87
ATOM     87  C   TRP     9     -12.544 -18.661   4.706  1.00  0.00     0.275 C 
ATOM     88  O   TRP     9     -13.089 -18.181   5.695  1.00  0.00    -0.268 OA
ATOM     89  N   GLY    10     -12.719 -19.927   4.331  1.00  0.00    -0.226 NA
BRANCH  89  90
ATOM     90  CA  GLY    10     -13.531 -20.921   5.085  1.00  0.00     0.218 C 
BRANCH  90  91
ATOM     91  C   GLY    10     -13.225 -22.402   4.810  1.00  0.00     0.277 C 
ATOM     92  N   CYS    11     -13.722 -22.878   3.669  1.00  0.00    -0.228 NA
ATOM     93  O   GLY    10     -12.714 -23.104   5.675  1.00  0.00    -0.268 OA
BRANCH  92  94
ATOM     94  CA  CYS    11     -13.564 -24.252   3.144  1.00  0.00     0.198 C 
BRANCH  94  95
ATOM     95  C   CYS    11     -12.259 -24.304   2.325  1.00  0.00     0.275 C 
ATOM     96  O   CYS    11     -12.172 -23.637   1.300  1.00  0.00    -0.268 OA
ATOM     97  N   GLY    12     -11.383 -25.231   2.685  1.00  0.00    -0.225 NA
BRANCH  97  98
ATOM     98  CA  GLY    12     -10.096 -25.426   2.001  1.00  0.00     0.226 C 
BRANCH  98  99
ATOM     99  C   GLY    12     -10.202 -26.706   1.140  1.00  0.00     0.211 C 
ATOM    100  O1  GLY    12     -11.253 -26.845   0.464  1.00  0.00    -0.646 OA
ATOM    101  O2  GLY    12      -9.235 -27.490   1.144  1.00  0.00    -0.646 OA
ENDBRANCH  98  99
ENDBRANCH  97  98
ENDBRANCH  94  95
BRANCH  94 102
ATOM    102  CB  CYS    11     -14.684 -24.569   2.155  1.00  0.00     0.103 C 
ATOM    103  SG  CYS    11     -15.266 -26.308   2.122  1.00  0.00    -0.080 SA
ENDBRANCH  94 102
ENDBRANCH  92  94
ENDBRANCH  90  91
ENDBRANCH  89  90
ENDBRANCH  76  87
ENDBRANCH  74  76
ENDBRANCH  65  73
ENDBRANCH  63  65
ENDBRANCH  61  62
BRANCH  61 104
ATOM    104  CB  ASN     7      -5.858 -17.272   7.380  1.00  0.00     0.126 C 
BRANCH 104 105
ATOM    105  CG  ASN     7      -4.920 -18.493   7.357  1.00  0.00     0.276 C 
ATOM    106  ND2 ASN     7      -4.451 -18.881   8.520  1.00  0.00    -0.107 N 
ATOM    107  OD1 ASN     7      -4.470 -19.014   6.344  1.00  0.00    -0.269 OA
ENDBRANCH 104 105
ENDBRANCH  61 104
ENDBRANCH  59  61
ENDBRANCH   1  58
TORSDOF 42
ENDMDL
MODEL 4
REMARK VINA RESULT:      -5.8      4.215      9.539
REMARK WARNING: 32 MAX_TORS EXCEEDED!!!
REMARK  42 active torsions:
REMARK  status: ('A' for Active; 'I' for Inactive)
REMARK    1  A    between atoms: CA_2  and  CB_3 
REMARK    2  A    between atoms: CA_2  and  C_11 
REMARK    3  A    between atoms: CB_3  and  CG_4 
REMARK       I    between atoms: C_11  and  N_13 
REMARK    4  A    between atoms: N_13  and  CA_14 
REMARK    5  A    between atoms: CA_14  and  CB_15 
REMARK    6  A    between atoms: CA_14  and  C_19 
REMARK    7  A    between atoms: CB_15  and  CG_16 
REMARK       I    between atoms: C_19  and  N_21 
REMARK    8  A    between atoms: CA_22  and  C_26 
REMARK       I    between atoms: C_26  and  N_28 
REMARK    9  A    between atoms: N_28  and  CA_29 
REMARK   10  A    between atoms: CA_29  and  C_35 
REMARK   11  A    between atoms: CA_29  and  CB_30 
REMARK   12  A    between atoms: CB_30  and  CG_31 
REMARK   13  A    between atoms: CG_31  and  CD_32 
REMARK       I    between atoms: C_35  and  N_37 
REMARK   14  A    between atoms: N_37  and  CA_38 
REMARK   15  A    between atoms: CA_38  and  CB_39 
REMARK   16  A    between atoms: CA_38  and  C_47 
REMARK   17  A    between atoms: CB_39  and  CG_40 
REMARK       I    between atoms: C_47  and  N_49 
REMARK   18  A    between atoms: N_49  and  CA_50 
REMARK   19  A    between atoms: CA_50  and  CB_51 
REMARK   20  A    between atoms: CA_50  and  C_58 
REMARK   21  A    between atoms: CB_51  and  CG_52 
REMARK   22  A    between atoms: CG_52  and  CD_53 
REMARK   23  A    between atoms: CD_53  and  NE_54 
REMARK       I    between atoms: C_58  and  N_60 
REMARK   24  A    between atoms: N_60  and  CA_61 
REMARK   25  A    between atoms: CA_61  and  C_66 
REMARK   26  A    between atoms: CA_61  and  CB_62 
REMARK   27  A    between atoms: CB_62  and  CG_63 
REMARK       I    between atoms: C_66  and  N_68 
REMARK   28  A    between atoms: N_68  and  CA_69 
REMARK   29  A    between atoms: CA_69  and  CB_70 
REMARK   30  A    between atoms: CA_69  and  C_77 
REMARK   31  A    between atoms: CB_70  and  CG_71 
REMARK       I    between atoms: C_77  and  N_79 
REMARK   32  A    between atoms: N_79  and  CA_80 
REMARK   33  A    between atoms: CA_80  and  CB_81 
REMARK   34  A    between atoms: CA_80  and  C_91 
REMARK   35  A    between atoms: CB_81  and  CG_82 
REMARK       I    between atoms: C_91  and  N_93 
REMARK   36  A    between atoms: N_93  and  CA_94 
REMARK   37  A    between atoms: CA_94  and  C_95 
REMARK       I    between atoms: C_95  and  N_97 
REMARK   38  A    between atoms: N_97  and  CA_98 
REMARK   39  A    between atoms: CA_98  and  C_101 
REMARK   40  A    between atoms: CA_98  and  CB_99 
REMARK       I    between atoms: C_101  and  N_103 
REMARK   41  A    between atoms: N_103  and  CA_104 
REMARK   42  A    between atoms: CA_104  and  C_105 
ROOT
ATOM      1  CA  ARG     6       1.200 -20.334   8.030  1.00  0.00     0.186 C 
ENDROOT
BRANCH   1   2
ATOM      2  N   ARG     6      -0.030 -21.159   7.974  1.00  0.00    -0.229 NA
ATOM      3  C   TYR     5      -0.930 -21.041   6.989  1.00  0.00     0.275 C 
ATOM      4  O   TYR     5      -0.779 -20.259   6.049  1.00  0.00    -0.268 OA
BRANCH   3   5
ATOM      5  CA  TYR     5      -2.124 -22.008   7.011  1.00  0.00     0.191 C 
BRANCH   5   6
ATOM      6  N   TYR     5      -2.689 -22.284   5.665  1.00  0.00    -0.228 NA
ATOM      7  C   GLU     4      -3.873 -21.801   5.252  1.00  0.00     0.274 C 
ATOM      8  O   GLU     4      -4.514 -20.983   5.899  1.00  0.00    -0.268 OA
BRANCH   7   9
ATOM      9  CA  GLU     4      -4.237 -22.070   3.778  1.00  0.00     0.187 C 
BRANCH   9  10
ATOM     10  CB  GLU     4      -5.740 -22.372   3.659  1.00  0.00     0.045 C 
BRANCH  10  11
ATOM     11  CG  GLU     4      -6.259 -23.586   4.461  1.00  0.00     0.100 C 
BRANCH  11  12
ATOM     12  CD  GLU     4      -7.649 -24.066   4.046  1.00  0.00     0.185 C 
ATOM     13  OE1 GLU     4      -7.929 -24.034   2.819  1.00  0.00    -0.647 OA
ATOM     14  OE2 GLU     4      -8.545 -24.005   4.912  1.00  0.00    -0.647 OA
ENDBRANCH  11  12
ENDBRANCH  10  11
ENDBRANCH   9  10
BRANCH   9  15
ATOM     15  N   GLU     4      -3.483 -23.192   3.187  1.00  0.00    -0.229 NA
ATOM     16  C   PRO     3      -3.276 -23.455   1.902  1.00  0.00     0.272 C 
ATOM     17  O   PRO     3      -3.364 -22.604   1.015  1.00  0.00    -0.269 OA
BRANCH  16  18
ATOM     18  CA  PRO     3      -2.446 -24.708   1.617  1.00  0.00     0.165 C 
ATOM     19  N   PRO     3      -3.131 -25.735   0.803  1.00  0.00    -0.312 N 
ATOM     20  CD  PRO     3      -2.175 -26.318  -0.173  1.00  0.00     0.105 C 
ATOM     21  C   ASP     2      -4.383 -26.168   1.038  1.00  0.00     0.257 C 
ATOM     22  CG  PRO     3      -0.812 -25.742   0.241  1.00  0.00     0.027 C 
ATOM     23  CB  PRO     3      -1.160 -24.390   0.857  1.00  0.00     0.034 C 
ATOM     24  O   ASP     2      -4.959 -25.873   2.096  1.00  0.00    -0.270 OA
BRANCH  21  25
ATOM     25  CA  ASP     2      -4.968 -27.309   0.175  1.00  0.00     0.195 C 
BRANCH  25  26
ATOM     26  CB  ASP     2      -6.053 -26.906  -0.857  1.00  0.00     0.132 C 
BRANCH  26  27
ATOM     27  CG  ASP     2      -5.437 -26.047  -1.977  1.00  0.00     0.188 C 
ATOM     28  OD2 ASP     2      -5.946 -24.908  -2.129  1.00  0.00    -0.647 OA
ATOM     29  OD1 ASP     2      -4.953 -26.664  -2.959  1.00  0.00    -0.647 OA
ENDBRANCH  26  27
ENDBRANCH  25  26
BRANCH  25  30
ATOM     30  N   ASP     2      -5.664 -28.319   0.990  1.00  0.00    -0.228 NA
ATOM     31  C   TYR     1      -5.141 -29.406   1.507  1.00  0.00     0.289 C 
ATOM     32  O   TYR     1      -3.952 -29.739   1.536  1.00  0.00    -0.268 OA
BRANCH  31  33
ATOM     33  CA  TYR     1      -6.204 -30.324   2.103  1.00  0.00     0.385 C 
ATOM     34  N   TYR     1      -7.155 -30.668   1.032  1.00  0.00     0.626 N 
BRANCH  33  35
ATOM     35  CB  TYR     1      -5.486 -31.549   2.663  1.00  0.00     0.075 C 
BRANCH  35  36
ATOM     36  CG  TYR     1      -5.552 -31.636   4.196  1.00  0.00    -0.019 A 
ATOM     37  CD2 TYR     1      -5.807 -30.517   4.972  1.00  0.00    -0.002 A 
ATOM     38  CE2 TYR     1      -5.996 -30.645   6.340  1.00  0.00     0.027 A 
ATOM     39  CZ  TYR     1      -5.919 -31.910   6.921  1.00  0.00     0.131 A 
ATOM     40  CE1 TYR     1      -5.624 -33.017   6.146  1.00  0.00     0.027 A 
ATOM     41  OH  TYR     1      -6.282 -32.089   8.208  1.00  0.00    -0.190 OA
ATOM     42  CD1 TYR     1      -5.435 -32.889   4.779  1.00  0.00    -0.002 A 
ENDBRANCH  35  36
ENDBRANCH  33  35
ENDBRANCH  31  33
ENDBRANCH  25  30
ENDBRANCH  21  25
ENDBRANCH  16  18
ENDBRANCH   9  15
ENDBRANCH   7   9
ENDBRANCH   5   6
BRANCH   5  43
ATOM     43  CB  TYR     5      -1.749 -23.328   7.706  1.00  0.00     0.060 C 
BRANCH  43  44
ATOM     44  CG  TYR     5      -2.854 -23.822   8.655  1.00  0.00    -0.020 A 
ATOM     45  CD2 TYR     5      -2.654 -23.832  10.029  1.00  0.00    -0.002 A 
ATOM     46  CE2 TYR     5      -3.663 -24.274  10.880  1.00  0.00     0.027 A 
ATOM     47  CZ  TYR     5      -4.871 -24.707  10.356  1.00  0.00     0.131 A 
ATOM     48  CE1 TYR     5      -5.086 -24.683   8.983  1.00  0.00     0.027 A 
ATOM     49  OH  TYR     5      -5.801 -25.266  11.161  1.00  0.00    -0.190 OA
ATOM     50  CD1 TYR     5      -4.070 -24.248   8.131  1.00  0.00    -0.002 A 
ENDBRANCH  43  44
ENDBRANCH   5  43
ENDBRANCH   3   5
ENDBRANCH   1   2
BRANCH   1  51
ATOM     51  CB  ARG     6       1.466 -19.758   9.416  1.00  0.00     0.036 C 
BRANCH  51  52
ATOM     52  CG  ARG     6       1.102 -18.276   9.546  1.00  0.00     0.029 C 
BRANCH  52  53
ATOM     53  CD  ARG     6       1.760 -17.468   8.431  1.00  0.00     0.145 C 
BRANCH  53  54
ATOM     54  NE  ARG     6       3.220 -17.410   8.612  1.00  0.00    -0.083 NA
ATOM     55  CZ  ARG     6       4.107 -17.008   7.682  1.00  0.00     0.782 C 
ATOM     56  NH2 ARG     6       5.418 -17.073   7.923  1.00  0.00     0.063 N 
ATOM     57  NH1 ARG     6       3.691 -16.623   6.481  1.00  0.00     0.063 N 
ENDBRANCH  53  54
ENDBRANCH  52  53
ENDBRANCH  51  52
ENDBRANCH   1  51
BRANCH   1  58
ATOM     58  C   ARG     6       2.454 -21.124   7.635  1.00  0.00     0.274 C 
ATOM     59  N   ASN     7       2.375 -22.444   7.783  1.00  0.00    -0.228 NA
ATOM     60  O   ARG     6       3.441 -20.517   7.219  1.00  0.00    -0.268 OA
BRANCH  59  61
ATOM     61  CA  ASN     7       3.443 -23.376   7.365  1.00  0.00     0.196 C 
BRANCH  61  62
ATOM     62  C   ASN     7       2.879 -24.770   7.027  1.00  0.00     0.275 C 
ATOM     63  N   PHE     8       1.998 -24.841   6.018  1.00  0.00    -0.228 NA
ATOM     64  O   ASN     7       3.521 -25.733   7.401  1.00  0.00    -0.268 OA
BRANCH  63  65
ATOM     65  CA  PHE     8       1.412 -26.097   5.490  1.00  0.00     0.191 C 
BRANCH  65  66
ATOM     66  CB  PHE     8      -0.020 -25.801   5.024  1.00  0.00     0.060 C 
BRANCH  66  67
ATOM     67  CG  PHE     8      -1.114 -26.529   5.826  1.00  0.00    -0.020 A 
ATOM     68  CD1 PHE     8      -2.349 -26.781   5.244  1.00  0.00    -0.004 A 
ATOM     69  CE1 PHE     8      -3.372 -27.349   6.003  1.00  0.00    -0.000 A 
ATOM     70  CZ  PHE     8      -3.145 -27.671   7.331  1.00  0.00    -0.000 A 
ATOM     71  CE2 PHE     8      -1.905 -27.431   7.914  1.00  0.00    -0.000 A 
ATOM     72  CD2 PHE     8      -0.882 -26.864   7.154  1.00  0.00    -0.004 A 
ENDBRANCH  66  67
ENDBRANCH  65  66
BRANCH  65  73
ATOM     73  C   PHE     8       2.241 -26.790   4.385  1.00  0.00     0.275 C 
ATOM     74  N   TRP     9       1.961 -28.073   4.149  1.00  0.00    -0.228 NA
ATOM     75  O   PHE     8       3.261 -26.264   3.935  1.00  0.00    -0.268 OA
BRANCH  74  76
ATOM     76  CA  TRP     9       2.591 -28.825   3.036  1.00  0.00     0.191 C 
BRANCH  76  77
ATOM     77  CB  TRP     9       2.818 -30.278   3.485  1.00  0.00     0.062 C 
BRANCH  77  78
ATOM     78  CG  TRP     9       1.574 -31.154   3.341  1.00  0.00     0.001 A 
ATOM     79  CD1 TRP     9       1.262 -31.898   2.285  1.00  0.00     0.095 A 
ATOM     80  NE1 TRP     9      -0.005 -32.286   2.368  1.00  0.00    -0.244 NA
ATOM     81  CE2 TRP     9      -0.537 -31.821   3.489  1.00  0.00     0.081 A 
ATOM     82  CD2 TRP     9       0.436 -31.077   4.137  1.00  0.00     0.015 A 
ATOM     83  CZ2 TRP     9      -1.830 -31.860   4.009  1.00  0.00     0.019 A 
ATOM     84  CE3 TRP     9       0.135 -30.361   5.286  1.00  0.00     0.001 A 
ATOM     85  CZ3 TRP     9      -1.158 -30.388   5.800  1.00  0.00     0.000 A 
ATOM     86  CH2 TRP     9      -2.133 -31.156   5.165  1.00  0.00     0.002 A 
ENDBRANCH  77  78
ENDBRANCH  76  77
BRANCH  76  87
ATOM     87  C   TRP     9       1.821 -28.756   1.698  1.00  0.00     0.275 C 
ATOM     88  O   TRP     9       0.628 -28.469   1.673  1.00  0.00    -0.268 OA
ATOM     89  N   GLY    10       2.545 -28.924   0.593  1.00  0.00    -0.226 NA
BRANCH  89  90
ATOM     90  CA  GLY    10       1.996 -28.850  -0.789  1.00  0.00     0.218 C 
BRANCH  90  91
ATOM     91  C   GLY    10       2.967 -29.198  -1.928  1.00  0.00     0.277 C 
ATOM     92  N   CYS    11       3.572 -28.153  -2.492  1.00  0.00    -0.228 NA
ATOM     93  O   GLY    10       3.022 -30.338  -2.374  1.00  0.00    -0.268 OA
BRANCH  92  94
ATOM     94  CA  CYS    11       4.566 -28.195  -3.587  1.00  0.00     0.198 C 
BRANCH  94  95
ATOM     95  C   CYS    11       5.917 -27.709  -3.026  1.00  0.00     0.275 C 
ATOM     96  O   CYS    11       6.913 -27.764  -3.739  1.00  0.00    -0.268 OA
ATOM     97  N   GLY    12       5.947 -27.444  -1.728  1.00  0.00    -0.225 NA
BRANCH  97  98
ATOM     98  CA  GLY    12       7.158 -26.986  -1.031  1.00  0.00     0.226 C 
BRANCH  98  99
ATOM     99  C   GLY    12       6.890 -27.058   0.490  1.00  0.00     0.211 C 
ATOM    100  O1  GLY    12       6.156 -26.160   0.976  1.00  0.00    -0.646 OA
ATOM    101  O2  GLY    12       7.383 -28.010   1.122  1.00  0.00    -0.646 OA
ENDBRANCH  98  99
ENDBRANCH  97  98
ENDBRANCH  94  95
BRANCH  94 102
ATOM    102  CB  CYS    11       4.189 -27.195  -4.678  1.00  0.00     0.103 C 
ATOM    103  SG  CYS    11       4.155 -25.430  -4.179  1.00  0.00    -0.080 SA
ENDBRANCH  94 102
ENDBRANCH  92  94
ENDBRANCH  90  91
ENDBRANCH  89  90
ENDBRANCH  76  87
ENDBRANCH  74  76
ENDBRANCH  65  73
ENDBRANCH  63  65
ENDBRANCH  61  62
BRANCH  61 104
ATOM    104  CB  ASN     7       4.542 -23.476   8.430  1.00  0.00     0.126 C 
BRANCH 104 105
ATOM    105  CG  ASN     7       4.068 -23.235   9.875  1.00  0.00     0.276 C 
ATOM    106  ND2 ASN     7       3.432 -24.232  10.446  1.00  0.00    -0.107 N 
ATOM    107  OD1 ASN     7       4.102 -22.157  10.455  1.00  0.00    -0.269 OA
ENDBRANCH 104 105
ENDBRANCH  61 104
ENDBRANCH  59  61
ENDBRANCH   1  58
TORSDOF 42
ENDMDL
MODEL 5
REMARK VINA RESULT:      -5.8      1.635      2.181
REMARK WARNING: 32 MAX_TORS EXCEEDED!!!
REMARK  42 active torsions:
REMARK  status: ('A' for Active; 'I' for Inactive)
REMARK    1  A    between atoms: CA_2  and  CB_3 
REMARK    2  A    between atoms: CA_2  and  C_11 
REMARK    3  A    between atoms: CB_3  and  CG_4 
REMARK       I    between atoms: C_11  and  N_13 
REMARK    4  A    between atoms: N_13  and  CA_14 
REMARK    5  A    between atoms: CA_14  and  CB_15 
REMARK    6  A    between atoms: CA_14  and  C_19 
REMARK    7  A    between atoms: CB_15  and  CG_16 
REMARK       I    between atoms: C_19  and  N_21 
REMARK    8  A    between atoms: CA_22  and  C_26 
REMARK       I    between atoms: C_26  and  N_28 
REMARK    9  A    between atoms: N_28  and  CA_29 
REMARK   10  A    between atoms: CA_29  and  C_35 
REMARK   11  A    between atoms: CA_29  and  CB_30 
REMARK   12  A    between atoms: CB_30  and  CG_31 
REMARK   13  A    between atoms: CG_31  and  CD_32 
REMARK       I    between atoms: C_35  and  N_37 
REMARK   14  A    between atoms: N_37  and  CA_38 
REMARK   15  A    between atoms: CA_38  and  CB_39 
REMARK   16  A    between atoms: CA_38  and  C_47 
REMARK   17  A    between atoms: CB_39  and  CG_40 
REMARK       I    between atoms: C_47  and  N_49 
REMARK   18  A    between atoms: N_49  and  CA_50 
REMARK   19  A    between atoms: CA_50  and  CB_51 
REMARK   20  A    between atoms: CA_50  and  C_58 
REMARK   21  A    between atoms: CB_51  and  CG_52 
REMARK   22  A    between atoms: CG_52  and  CD_53 
REMARK   23  A    between atoms: CD_53  and  NE_54 
REMARK       I    between atoms: C_58  and  N_60 
REMARK   24  A    between atoms: N_60  and  CA_61 
REMARK   25  A    between atoms: CA_61  and  C_66 
REMARK   26  A    between atoms: CA_61  and  CB_62 
REMARK   27  A    between atoms: CB_62  and  CG_63 
REMARK       I    between atoms: C_66  and  N_68 
REMARK   28  A    between atoms: N_68  and  CA_69 
REMARK   29  A    between atoms: CA_69  and  CB_70 
REMARK   30  A    between atoms: CA_69  and  C_77 
REMARK   31  A    between atoms: CB_70  and  CG_71 
REMARK       I    between atoms: C_77  and  N_79 
REMARK   32  A    between atoms: N_79  and  CA_80 
REMARK   33  A    between atoms: CA_80  and  CB_81 
REMARK   34  A    between atoms: CA_80  and  C_91 
REMARK   35  A    between atoms: CB_81  and  CG_82 
REMARK       I    between atoms: C_91  and  N_93 
REMARK   36  A    between atoms: N_93  and  CA_94 
REMARK   37  A    between atoms: CA_94  and  C_95 
REMARK       I    between atoms: C_95  and  N_97 
REMARK   38  A    between atoms: N_97  and  CA_98 
REMARK   39  A    between atoms: CA_98  and  C_101 
REMARK   40  A    between atoms: CA_98  and  CB_99 
REMARK       I    between atoms: C_101  and  N_103 
REMARK   41  A    between atoms: N_103  and  CA_104 
REMARK   42  A    between atoms: CA_104  and  C_105 
ROOT
ATOM      1  CA  ARG     6      -4.088 -21.085   5.652  1.00  0.00     0.186 C 
ENDROOT
BRANCH   1   2
ATOM      2  N   ARG     6      -3.609 -22.475   5.836  1.00  0.00    -0.229 NA
ATOM      3  C   TYR     5      -2.951 -23.141   4.878  1.00  0.00     0.275 C 
ATOM      4  O   TYR     5      -2.677 -22.630   3.791  1.00  0.00    -0.268 OA
BRANCH   3   5
ATOM      5  CA  TYR     5      -2.444 -24.550   5.225  1.00  0.00     0.191 C 
BRANCH   5   6
ATOM      6  N   TYR     5      -2.488 -25.495   4.080  1.00  0.00    -0.228 NA
ATOM      7  C   GLU     4      -2.868 -26.778   4.201  1.00  0.00     0.274 C 
ATOM      8  O   GLU     4      -3.341 -27.231   5.235  1.00  0.00    -0.268 OA
BRANCH   7   9
ATOM      9  CA  GLU     4      -2.990 -27.575   2.886  1.00  0.00     0.187 C 
BRANCH   9  10
ATOM     10  CB  GLU     4      -2.160 -26.895   1.785  1.00  0.00     0.045 C 
BRANCH  10  11
ATOM     11  CG  GLU     4      -0.973 -27.708   1.223  1.00  0.00     0.100 C 
BRANCH  11  12
ATOM     12  CD  GLU     4       0.349 -27.478   1.954  1.00  0.00     0.185 C 
ATOM     13  OE1 GLU     4       1.133 -28.459   2.053  1.00  0.00    -0.647 OA
ATOM     14  OE2 GLU     4       0.378 -26.546   2.782  1.00  0.00    -0.647 OA
ENDBRANCH  11  12
ENDBRANCH  10  11
ENDBRANCH   9  10
BRANCH   9  15
ATOM     15  N   GLU     4      -4.381 -27.709   2.413  1.00  0.00    -0.229 NA
ATOM     16  C   PRO     3      -4.849 -28.504   1.458  1.00  0.00     0.272 C 
ATOM     17  O   PRO     3      -4.264 -29.518   1.076  1.00  0.00    -0.269 OA
BRANCH  16  18
ATOM     18  CA  PRO     3      -6.354 -28.403   1.204  1.00  0.00     0.165 C 
ATOM     19  N   PRO     3      -6.726 -27.883  -0.130  1.00  0.00    -0.312 N 
ATOM     20  CD  PRO     3      -7.885 -28.647  -0.658  1.00  0.00     0.105 C 
ATOM     21  C   ASP     2      -6.183 -26.785  -0.686  1.00  0.00     0.257 C 
ATOM     22  CG  PRO     3      -8.338 -29.516   0.526  1.00  0.00     0.027 C 
ATOM     23  CB  PRO     3      -7.052 -29.757   1.312  1.00  0.00     0.034 C 
ATOM     24  O   ASP     2      -5.483 -26.019  -0.006  1.00  0.00    -0.270 OA
BRANCH  21  25
ATOM     25  CA  ASP     2      -6.709 -26.284  -2.050  1.00  0.00     0.195 C 
BRANCH  25  26
ATOM     26  CB  ASP     2      -5.724 -26.372  -3.244  1.00  0.00     0.132 C 
BRANCH  26  27
ATOM     27  CG  ASP     2      -6.192 -27.442  -4.248  1.00  0.00     0.188 C 
ATOM     28  OD2 ASP     2      -5.721 -28.595  -4.070  1.00  0.00    -0.647 OA
ATOM     29  OD1 ASP     2      -6.478 -27.044  -5.404  1.00  0.00    -0.647 OA
ENDBRANCH  26  27
ENDBRANCH  25  26
BRANCH  25  30
ATOM     30  N   ASP     2      -7.045 -24.850  -2.021  1.00  0.00    -0.228 NA
ATOM     31  C   TYR     1      -8.129 -24.308  -1.515  1.00  0.00     0.289 C 
ATOM     32  O   TYR     1      -9.014 -24.855  -0.850  1.00  0.00    -0.268 OA
BRANCH  31  33
ATOM     33  CA  TYR     1      -8.239 -22.826  -1.858  1.00  0.00     0.385 C 
ATOM     34  N   TYR     1      -7.371 -22.565  -3.018  1.00  0.00     0.626 N 
BRANCH  33  35
ATOM     35  CB  TYR     1      -9.709 -22.534  -2.150  1.00  0.00     0.075 C 
BRANCH  35  36
ATOM     36  CG  TYR     1     -10.254 -21.337  -1.355  1.00  0.00    -0.019 A 
ATOM     37  CD2 TYR     1     -10.642 -21.465  -0.031  1.00  0.00    -0.002 A 
ATOM     38  CE2 TYR     1     -11.001 -20.345   0.703  1.00  0.00     0.027 A 
ATOM     39  CZ  TYR     1     -10.972 -19.093   0.090  1.00  0.00     0.131 A 
ATOM     40  CE1 TYR     1     -10.623 -18.977  -1.243  1.00  0.00     0.027 A 
ATOM     41  OH  TYR     1     -11.133 -17.974   0.825  1.00  0.00    -0.190 OA
ATOM     42  CD1 TYR     1     -10.264 -20.097  -1.977  1.00  0.00    -0.002 A 
ENDBRANCH  35  36
ENDBRANCH  33  35
ENDBRANCH  31  33
ENDBRANCH  25  30
ENDBRANCH  21  25
ENDBRANCH  16  18
ENDBRANCH   9  15
ENDBRANCH   7   9
ENDBRANCH   5   6
BRANCH   5  43
ATOM     43  CB  TYR     5      -1.022 -24.493   5.808  1.00  0.00     0.060 C 
BRANCH  43  44
ATOM     44  CG  TYR     5      -1.014 -24.612   7.341  1.00  0.00    -0.020 A 
ATOM     45  CD2 TYR     5      -0.803 -25.840   7.954  1.00  0.00    -0.002 A 
ATOM     46  CE2 TYR     5      -0.790 -25.937   9.343  1.00  0.00     0.027 A 
ATOM     47  CZ  TYR     5      -0.990 -24.805  10.118  1.00  0.00     0.131 A 
ATOM     48  CE1 TYR     5      -1.185 -23.569   9.512  1.00  0.00     0.027 A 
ATOM     49  OH  TYR     5      -1.118 -24.912  11.458  1.00  0.00    -0.190 OA
ATOM     50  CD1 TYR     5      -1.205 -23.476   8.120  1.00  0.00    -0.002 A 
ENDBRANCH  43  44
ENDBRANCH   5  43
ENDBRANCH   3   5
ENDBRANCH   1   2
BRANCH   1  51
ATOM     51  CB  ARG     6      -5.383 -20.799   6.406  1.00  0.00     0.036 C 
BRANCH  51  52
ATOM     52  CG  ARG     6      -6.183 -22.057   6.753  1.00  0.00     0.029 C 
BRANCH  52  53
ATOM     53  CD  ARG     6      -7.222 -22.341   5.672  1.00  0.00     0.145 C 
BRANCH  53  54
ATOM     54  NE  ARG     6      -6.877 -23.556   4.915  1.00  0.00    -0.083 NA
ATOM     55  CZ  ARG     6      -6.367 -23.581   3.669  1.00  0.00     0.782 C 
ATOM     56  NH2 ARG     6      -6.169 -24.741   3.041  1.00  0.00     0.063 N 
ATOM     57  NH1 ARG     6      -6.136 -22.447   3.016  1.00  0.00     0.063 N 
ENDBRANCH  53  54
ENDBRANCH  52  53
ENDBRANCH  51  52
ENDBRANCH   1  51
BRANCH   1  58
ATOM     58  C   ARG     6      -3.066 -20.044   6.126  1.00  0.00     0.274 C 
ATOM     59  N   ASN     7      -2.989 -19.868   7.442  1.00  0.00    -0.228 NA
ATOM     60  O   ARG     6      -2.392 -19.440   5.290  1.00  0.00    -0.268 OA
BRANCH  59  61
ATOM     61  CA  ASN     7      -1.999 -18.983   8.089  1.00  0.00     0.196 C 
BRANCH  61  62
ATOM     62  C   ASN     7      -0.831 -19.786   8.695  1.00  0.00     0.275 C 
ATOM     63  N   PHE     8       0.286 -19.882   7.958  1.00  0.00    -0.228 NA
ATOM     64  O   ASN     7      -0.832 -19.942   9.900  1.00  0.00    -0.268 OA
BRANCH  63  65
ATOM     65  CA  PHE     8       1.541 -20.536   8.402  1.00  0.00     0.191 C 
BRANCH  65  66
ATOM     66  CB  PHE     8       2.110 -21.336   7.222  1.00  0.00     0.060 C 
BRANCH  66  67
ATOM     67  CG  PHE     8       2.338 -22.831   7.516  1.00  0.00    -0.020 A 
ATOM     68  CD1 PHE     8       2.403 -23.275   8.830  1.00  0.00    -0.004 A 
ATOM     69  CE1 PHE     8       2.710 -24.609   9.096  1.00  0.00    -0.000 A 
ATOM     70  CZ  PHE     8       2.934 -25.487   8.048  1.00  0.00    -0.000 A 
ATOM     71  CE2 PHE     8       2.856 -25.046   6.730  1.00  0.00    -0.000 A 
ATOM     72  CD2 PHE     8       2.548 -23.712   6.464  1.00  0.00    -0.004 A 
ENDBRANCH  66  67
ENDBRANCH  65  66
BRANCH  65  73
ATOM     73  C   PHE     8       2.596 -19.583   9.007  1.00  0.00     0.275 C 
ATOM     74  N   TRP     9       3.715 -19.411   8.302  1.00  0.00    -0.228 NA
ATOM     75  O   PHE     8       2.515 -19.210  10.180  1.00  0.00    -0.268 OA
BRANCH  74  76
ATOM     76  CA  TRP     9       4.756 -18.432   8.701  1.00  0.00     0.191 C 
BRANCH  76  77
ATOM     77  CB  TRP     9       6.084 -19.178   8.912  1.00  0.00     0.062 C 
BRANCH  77  78
ATOM     78  CG  TRP     9       5.922 -20.490   9.677  1.00  0.00     0.001 A 
ATOM     79  CD1 TRP     9       5.984 -20.637  10.998  1.00  0.00     0.095 A 
ATOM     80  NE1 TRP     9       6.098 -21.924  11.301  1.00  0.00    -0.244 NA
ATOM     81  CE2 TRP     9       6.093 -22.643  10.189  1.00  0.00     0.081 A 
ATOM     82  CD2 TRP     9       5.996 -21.764   9.122  1.00  0.00     0.015 A 
ATOM     83  CZ2 TRP     9       6.271 -24.004   9.941  1.00  0.00     0.019 A 
ATOM     84  CE3 TRP     9       6.089 -22.219   7.815  1.00  0.00     0.001 A 
ATOM     85  CZ3 TRP     9       6.280 -23.574   7.566  1.00  0.00     0.000 A 
ATOM     86  CH2 TRP     9       6.351 -24.465   8.635  1.00  0.00     0.002 A 
ENDBRANCH  77  78
ENDBRANCH  76  77
BRANCH  76  87
ATOM     87  C   TRP     9       4.920 -17.239   7.732  1.00  0.00     0.275 C 
ATOM     88  O   TRP     9       3.940 -16.644   7.294  1.00  0.00    -0.268 OA
ATOM     89  N   GLY    10       6.169 -16.844   7.492  1.00  0.00    -0.226 NA
BRANCH  89  90
ATOM     90  CA  GLY    10       6.531 -15.690   6.623  1.00  0.00     0.218 C 
BRANCH  90  91
ATOM     91  C   GLY    10       8.029 -15.365   6.511  1.00  0.00     0.277 C 
ATOM     92  N   CYS    11       8.842 -16.417   6.593  1.00  0.00    -0.228 NA
ATOM     93  O   GLY    10       8.417 -14.202   6.522  1.00  0.00    -0.268 OA
BRANCH  92  94
ATOM     94  CA  CYS    11      10.319 -16.400   6.495  1.00  0.00     0.198 C 
BRANCH  94  95
ATOM     95  C   CYS    11      10.731 -17.326   5.334  1.00  0.00     0.275 C 
ATOM     96  O   CYS    11      10.214 -18.434   5.242  1.00  0.00    -0.268 OA
ATOM     97  N   GLY    12      11.774 -16.932   4.618  1.00  0.00    -0.225 NA
BRANCH  97  98
ATOM     98  CA  GLY    12      12.308 -17.705   3.485  1.00  0.00     0.226 C 
BRANCH  98  99
ATOM     99  C   GLY    12      11.658 -17.164   2.190  1.00  0.00     0.211 C 
ATOM    100  O1  GLY    12      10.828 -17.915   1.619  1.00  0.00    -0.646 OA
ATOM    101  O2  GLY    12      11.970 -16.017   1.820  1.00  0.00    -0.646 OA
ENDBRANCH  98  99
ENDBRANCH  97  98
ENDBRANCH  94  95
BRANCH  94 102
ATOM    102  CB  CYS    11      10.936 -17.014   7.750  1.00  0.00     0.103 C 
ATOM    103  SG  CYS    11      12.569 -16.350   8.255  1.00  0.00    -0.080 SA
ENDBRANCH  94 102
ENDBRANCH  92  94
ENDBRANCH  90  91
ENDBRANCH  89  90
ENDBRANCH  76  87
ENDBRANCH  74  76
ENDBRANCH  65  73
ENDBRANCH  63  65
ENDBRANCH  61  62
BRANCH  61 104
ATOM    104  CB  ASN     7      -2.657 -18.094   9.151  1.00  0.00     0.126 C 
BRANCH 104 105
ATOM    105  CG  ASN     7      -4.104 -18.480   9.513  1.00  0.00     0.276 C 
ATOM    106  ND2 ASN     7      -4.240 -19.376  10.464  1.00  0.00    -0.107 N 
ATOM    107  OD1 ASN     7      -5.100 -18.138   8.888  1.00  0.00    -0.269 OA
ENDBRANCH 104 105
ENDBRANCH  61 104
ENDBRANCH  59  61
ENDBRANCH   1  58
TORSDOF 42
ENDMDL
MODEL 6
REMARK VINA RESULT:      -5.7      2.638      6.073
REMARK WARNING: 32 MAX_TORS EXCEEDED!!!
REMARK  42 active torsions:
REMARK  status: ('A' for Active; 'I' for Inactive)
REMARK    1  A    between atoms: CA_2  and  CB_3 
REMARK    2  A    between atoms: CA_2  and  C_11 
REMARK    3  A    between atoms: CB_3  and  CG_4 
REMARK       I    between atoms: C_11  and  N_13 
REMARK    4  A    between atoms: N_13  and  CA_14 
REMARK    5  A    between atoms: CA_14  and  CB_15 
REMARK    6  A    between atoms: CA_14  and  C_19 
REMARK    7  A    between atoms: CB_15  and  CG_16 
REMARK       I    between atoms: C_19  and  N_21 
REMARK    8  A    between atoms: CA_22  and  C_26 
REMARK       I    between atoms: C_26  and  N_28 
REMARK    9  A    between atoms: N_28  and  CA_29 
REMARK   10  A    between atoms: CA_29  and  C_35 
REMARK   11  A    between atoms: CA_29  and  CB_30 
REMARK   12  A    between atoms: CB_30  and  CG_31 
REMARK   13  A    between atoms: CG_31  and  CD_32 
REMARK       I    between atoms: C_35  and  N_37 
REMARK   14  A    between atoms: N_37  and  CA_38 
REMARK   15  A    between atoms: CA_38  and  CB_39 
REMARK   16  A    between atoms: CA_38  and  C_47 
REMARK   17  A    between atoms: CB_39  and  CG_40 
REMARK       I    between atoms: C_47  and  N_49 
REMARK   18  A    between atoms: N_49  and  CA_50 
REMARK   19  A    between atoms: CA_50  and  CB_51 
REMARK   20  A    between atoms: CA_50  and  C_58 
REMARK   21  A    between atoms: CB_51  and  CG_52 
REMARK   22  A    between atoms: CG_52  and  CD_53 
REMARK   23  A    between atoms: CD_53  and  NE_54 
REMARK       I    between atoms: C_58  and  N_60 
REMARK   24  A    between atoms: N_60  and  CA_61 
REMARK   25  A    between atoms: CA_61  and  C_66 
REMARK   26  A    between atoms: CA_61  and  CB_62 
REMARK   27  A    between atoms: CB_62  and  CG_63 
REMARK       I    between atoms: C_66  and  N_68 
REMARK   28  A    between atoms: N_68  and  CA_69 
REMARK   29  A    between atoms: CA_69  and  CB_70 
REMARK   30  A    between atoms: CA_69  and  C_77 
REMARK   31  A    between atoms: CB_70  and  CG_71 
REMARK       I    between atoms: C_77  and  N_79 
REMARK   32  A    between atoms: N_79  and  CA_80 
REMARK   33  A    between atoms: CA_80  and  CB_81 
REMARK   34  A    between atoms: CA_80  and  C_91 
REMARK   35  A    between atoms: CB_81  and  CG_82 
REMARK       I    between atoms: C_91  and  N_93 
REMARK   36  A    between atoms: N_93  and  CA_94 
REMARK   37  A    between atoms: CA_94  and  C_95 
REMARK       I    between atoms: C_95  and  N_97 
REMARK   38  A    between atoms: N_97  and  CA_98 
REMARK   39  A    between atoms: CA_98  and  C_101 
REMARK   40  A    between atoms: CA_98  and  CB_99 
REMARK       I    between atoms: C_101  and  N_103 
REMARK   41  A    between atoms: N_103  and  CA_104 
REMARK   42  A    between atoms: CA_104  and  C_105 
ROOT
ATOM      1  CA  ARG     6      -3.840 -20.296   6.301  1.00  0.00     0.186 C 
ENDROOT
BRANCH   1   2
ATOM      2  N   ARG     6      -3.782 -21.753   6.043  1.00  0.00    -0.229 NA
ATOM      3  C   TYR     5      -3.772 -22.263   4.804  1.00  0.00     0.275 C 
ATOM      4  O   TYR     5      -3.781 -21.552   3.799  1.00  0.00    -0.268 OA
BRANCH   3   5
ATOM      5  CA  TYR     5      -3.635 -23.789   4.675  1.00  0.00     0.191 C 
BRANCH   5   6
ATOM      6  N   TYR     5      -3.939 -24.299   3.313  1.00  0.00    -0.228 NA
ATOM      7  C   GLU     4      -5.157 -24.728   2.945  1.00  0.00     0.274 C 
ATOM      8  O   GLU     4      -6.145 -24.603   3.657  1.00  0.00    -0.268 OA
BRANCH   7   9
ATOM      9  CA  GLU     4      -5.325 -25.089   1.454  1.00  0.00     0.187 C 
BRANCH   9  10
ATOM     10  CB  GLU     4      -6.395 -24.189   0.817  1.00  0.00     0.045 C 
BRANCH  10  11
ATOM     11  CG  GLU     4      -5.895 -23.169  -0.230  1.00  0.00     0.100 C 
BRANCH  11  12
ATOM     12  CD  GLU     4      -6.392 -23.432  -1.651  1.00  0.00     0.185 C 
ATOM     13  OE1 GLU     4      -6.388 -24.625  -2.054  1.00  0.00    -0.647 OA
ATOM     14  OE2 GLU     4      -6.317 -22.481  -2.456  1.00  0.00    -0.647 OA
ENDBRANCH  11  12
ENDBRANCH  10  11
ENDBRANCH   9  10
BRANCH   9  15
ATOM     15  N   GLU     4      -5.704 -26.499   1.236  1.00  0.00    -0.229 NA
ATOM     16  C   PRO     3      -5.495 -27.247   0.159  1.00  0.00     0.272 C 
ATOM     17  O   PRO     3      -4.628 -26.997  -0.680  1.00  0.00    -0.269 OA
BRANCH  16  18
ATOM     18  CA  PRO     3      -6.017 -28.682   0.249  1.00  0.00     0.165 C 
ATOM     19  N   PRO     3      -5.618 -29.413   1.471  1.00  0.00    -0.312 N 
ATOM     20  CD  PRO     3      -6.761 -30.221   1.965  1.00  0.00     0.105 C 
ATOM     21  C   ASP     2      -4.360 -29.448   1.948  1.00  0.00     0.257 C 
ATOM     22  CG  PRO     3      -7.813 -30.112   0.850  1.00  0.00     0.027 C 
ATOM     23  CB  PRO     3      -7.543 -28.745   0.228  1.00  0.00     0.034 C 
ATOM     24  O   ASP     2      -3.417 -29.034   1.258  1.00  0.00    -0.270 OA
BRANCH  21  25
ATOM     25  CA  ASP     2      -4.041 -30.316   3.186  1.00  0.00     0.195 C 
BRANCH  25  26
ATOM     26  CB  ASP     2      -4.052 -29.591   4.557  1.00  0.00     0.132 C 
BRANCH  26  27
ATOM     27  CG  ASP     2      -4.864 -30.400   5.586  1.00  0.00     0.188 C 
ATOM     28  OD2 ASP     2      -6.044 -30.675   5.249  1.00  0.00    -0.647 OA
ATOM     29  OD1 ASP     2      -4.571 -30.231   6.796  1.00  0.00    -0.647 OA
ENDBRANCH  26  27
ENDBRANCH  25  26
BRANCH  25  30
ATOM     30  N   ASP     2      -2.680 -30.875   3.134  1.00  0.00    -0.228 NA
ATOM     31  C   TYR     1      -2.325 -32.105   3.425  1.00  0.00     0.289 C 
ATOM     32  O   TYR     1      -3.057 -33.071   3.667  1.00  0.00    -0.268 OA
BRANCH  31  33
ATOM     33  CA  TYR     1      -0.809 -32.268   3.469  1.00  0.00     0.385 C 
ATOM     34  N   TYR     1      -0.408 -33.074   2.304  1.00  0.00     0.626 N 
BRANCH  33  35
ATOM     35  CB  TYR     1      -0.200 -30.868   3.447  1.00  0.00     0.075 C 
BRANCH  35  36
ATOM     36  CG  TYR     1       0.413 -30.458   4.795  1.00  0.00    -0.019 A 
ATOM     37  CD2 TYR     1      -0.376 -30.261   5.918  1.00  0.00    -0.002 A 
ATOM     38  CE2 TYR     1       0.213 -30.025   7.151  1.00  0.00     0.027 A 
ATOM     39  CZ  TYR     1       1.603 -29.984   7.244  1.00  0.00     0.131 A 
ATOM     40  CE1 TYR     1       2.383 -30.141   6.113  1.00  0.00     0.027 A 
ATOM     41  OH  TYR     1       2.201 -29.944   8.452  1.00  0.00    -0.190 OA
ATOM     42  CD1 TYR     1       1.795 -30.376   4.879  1.00  0.00    -0.002 A 
ENDBRANCH  35  36
ENDBRANCH  33  35
ENDBRANCH  31  33
ENDBRANCH  25  30
ENDBRANCH  21  25
ENDBRANCH  16  18
ENDBRANCH   9  15
ENDBRANCH   7   9
ENDBRANCH   5   6
BRANCH   5  43
ATOM     43  CB  TYR     5      -2.236 -24.254   5.113  1.00  0.00     0.060 C 
BRANCH  43  44
ATOM     44  CG  TYR     5      -1.596 -25.214   4.097  1.00  0.00    -0.020 A 
ATOM     45  CD2 TYR     5      -1.770 -26.587   4.215  1.00  0.00    -0.002 A 
ATOM     46  CE2 TYR     5      -1.193 -27.448   3.287  1.00  0.00     0.027 A 
ATOM     47  CZ  TYR     5      -0.441 -26.936   2.240  1.00  0.00     0.131 A 
ATOM     48  CE1 TYR     5      -0.277 -25.562   2.105  1.00  0.00     0.027 A 
ATOM     49  OH  TYR     5       0.236 -27.767   1.419  1.00  0.00    -0.190 OA
ATOM     50  CD1 TYR     5      -0.849 -24.702   3.042  1.00  0.00    -0.002 A 
ENDBRANCH  43  44
ENDBRANCH   5  43
ENDBRANCH   3   5
ENDBRANCH   1   2
BRANCH   1  51
ATOM     51  CB  ARG     6      -4.676 -19.943   7.527  1.00  0.00     0.036 C 
BRANCH  51  52
ATOM     52  CG  ARG     6      -5.268 -18.532   7.482  1.00  0.00     0.029 C 
BRANCH  52  53
ATOM     53  CD  ARG     6      -5.116 -17.848   8.838  1.00  0.00     0.145 C 
BRANCH  53  54
ATOM     54  NE  ARG     6      -4.405 -16.566   8.706  1.00  0.00    -0.083 NA
ATOM     55  CZ  ARG     6      -3.828 -15.885   9.714  1.00  0.00     0.782 C 
ATOM     56  NH2 ARG     6      -3.280 -14.687   9.498  1.00  0.00     0.063 N 
ATOM     57  NH1 ARG     6      -3.874 -16.357  10.955  1.00  0.00     0.063 N 
ENDBRANCH  53  54
ENDBRANCH  52  53
ENDBRANCH  51  52
ENDBRANCH   1  51
BRANCH   1  58
ATOM     58  C   ARG     6      -2.451 -19.684   6.526  1.00  0.00     0.274 C 
ATOM     59  N   ASN     7      -2.120 -19.457   7.794  1.00  0.00    -0.228 NA
ATOM     60  O   ARG     6      -1.737 -19.439   5.553  1.00  0.00    -0.268 OA
BRANCH  59  61
ATOM     61  CA  ASN     7      -0.791 -18.965   8.213  1.00  0.00     0.196 C 
BRANCH  61  62
ATOM     62  C   ASN     7       0.192 -20.127   8.460  1.00  0.00     0.275 C 
ATOM     63  N   PHE     8       0.936 -20.525   7.417  1.00  0.00    -0.228 NA
ATOM     64  O   ASN     7       0.515 -20.344   9.611  1.00  0.00    -0.268 OA
BRANCH  63  65
ATOM     65  CA  PHE     8       1.993 -21.563   7.476  1.00  0.00     0.191 C 
BRANCH  65  66
ATOM     66  CB  PHE     8       2.011 -22.308   6.134  1.00  0.00     0.060 C 
BRANCH  66  67
ATOM     67  CG  PHE     8       1.788 -23.828   6.247  1.00  0.00    -0.020 A 
ATOM     68  CD1 PHE     8       2.087 -24.654   5.172  1.00  0.00    -0.004 A 
ATOM     69  CE1 PHE     8       1.790 -26.015   5.238  1.00  0.00    -0.000 A 
ATOM     70  CZ  PHE     8       1.213 -26.538   6.384  1.00  0.00    -0.000 A 
ATOM     71  CE2 PHE     8       0.925 -25.715   7.468  1.00  0.00    -0.000 A 
ATOM     72  CD2 PHE     8       1.222 -24.354   7.401  1.00  0.00    -0.004 A 
ENDBRANCH  66  67
ENDBRANCH  65  66
BRANCH  65  73
ATOM     73  C   PHE     8       3.397 -21.044   7.859  1.00  0.00     0.275 C 
ATOM     74  N   TRP     9       3.984 -21.633   8.902  1.00  0.00    -0.228 NA
ATOM     75  O   PHE     8       3.831 -19.988   7.393  1.00  0.00    -0.268 OA
BRANCH  74  76
ATOM     76  CA  TRP     9       5.378 -21.321   9.302  1.00  0.00     0.191 C 
BRANCH  76  77
ATOM     77  CB  TRP     9       6.319 -21.677   8.140  1.00  0.00     0.062 C 
BRANCH  77  78
ATOM     78  CG  TRP     9       6.979 -23.046   8.298  1.00  0.00     0.001 A 
ATOM     79  CD1 TRP     9       8.252 -23.267   8.614  1.00  0.00     0.095 A 
ATOM     80  NE1 TRP     9       8.558 -24.537   8.378  1.00  0.00    -0.244 NA
ATOM     81  CE2 TRP     9       7.489 -25.173   7.923  1.00  0.00     0.081 A 
ATOM     82  CD2 TRP     9       6.456 -24.252   7.842  1.00  0.00     0.015 A 
ATOM     83  CZ2 TRP     9       7.290 -26.469   7.447  1.00  0.00     0.019 A 
ATOM     84  CE3 TRP     9       5.236 -24.599   7.281  1.00  0.00     0.001 A 
ATOM     85  CZ3 TRP     9       5.040 -25.887   6.794  1.00  0.00     0.000 A 
ATOM     86  CH2 TRP     9       6.067 -26.824   6.898  1.00  0.00     0.002 A 
ENDBRANCH  77  78
ENDBRANCH  76  77
BRANCH  76  87
ATOM     87  C   TRP     9       5.595 -19.870   9.788  1.00  0.00     0.275 C 
ATOM     88  O   TRP     9       4.811 -19.344  10.572  1.00  0.00    -0.268 OA
ATOM     89  N   GLY    10       6.720 -19.278   9.388  1.00  0.00    -0.226 NA
BRANCH  89  90
ATOM     90  CA  GLY    10       7.130 -17.902   9.783  1.00  0.00     0.218 C 
BRANCH  90  91
ATOM     91  C   GLY    10       7.720 -17.020   8.671  1.00  0.00     0.277 C 
ATOM     92  N   CYS    11       7.817 -17.607   7.478  1.00  0.00    -0.228 NA
ATOM     93  O   GLY    10       8.214 -15.930   8.935  1.00  0.00    -0.268 OA
BRANCH  92  94
ATOM     94  CA  CYS    11       8.324 -16.992   6.231  1.00  0.00     0.198 C 
BRANCH  94  95
ATOM     95  C   CYS    11       7.139 -16.843   5.256  1.00  0.00     0.275 C 
ATOM     96  O   CYS    11       7.293 -17.154   4.080  1.00  0.00    -0.268 OA
ATOM     97  N   GLY    12       6.081 -16.194   5.720  1.00  0.00    -0.225 NA
BRANCH  97  98
ATOM     98  CA  GLY    12       4.874 -15.951   4.916  1.00  0.00     0.226 C 
BRANCH  98  99
ATOM     99  C   GLY    12       3.744 -15.506   5.874  1.00  0.00     0.211 C 
ATOM    100  O1  GLY    12       3.381 -16.339   6.743  1.00  0.00    -0.646 OA
ATOM    101  O2  GLY    12       3.297 -14.352   5.747  1.00  0.00    -0.646 OA
ENDBRANCH  98  99
ENDBRANCH  97  98
ENDBRANCH  94  95
BRANCH  94 102
ATOM    102  CB  CYS    11       9.308 -17.934   5.543  1.00  0.00     0.103 C 
ATOM    103  SG  CYS    11      11.039 -17.339   5.411  1.00  0.00    -0.080 SA
ENDBRANCH  94 102
ENDBRANCH  92  94
ENDBRANCH  90  91
ENDBRANCH  89  90
ENDBRANCH  76  87
ENDBRANCH  74  76
ENDBRANCH  65  73
ENDBRANCH  63  65
ENDBRANCH  61  62
BRANCH  61 104
ATOM    104  CB  ASN     7      -0.895 -18.067   9.453  1.00  0.00     0.126 C 
BRANCH 104 105
ATOM    105  CG  ASN     7      -0.185 -16.706   9.327  1.00  0.00     0.276 C 
ATOM    106  ND2 ASN     7      -0.100 -15.996  10.429  1.00  0.00    -0.107 N 
ATOM    107  OD1 ASN     7       0.154 -16.185   8.272  1.00  0.00    -0.269 OA
ENDBRANCH 104 105
ENDBRANCH  61 104
ENDBRANCH  59  61
ENDBRANCH   1  58
TORSDOF 42
ENDMDL
MODEL 7
REMARK VINA RESULT:      -5.6      3.816     16.322
REMARK WARNING: 32 MAX_TORS EXCEEDED!!!
REMARK  42 active torsions:
REMARK  status: ('A' for Active; 'I' for Inactive)
REMARK    1  A    between atoms: CA_2  and  CB_3 
REMARK    2  A    between atoms: CA_2  and  C_11 
REMARK    3  A    between atoms: CB_3  and  CG_4 
REMARK       I    between atoms: C_11  and  N_13 
REMARK    4  A    between atoms: N_13  and  CA_14 
REMARK    5  A    between atoms: CA_14  and  CB_15 
REMARK    6  A    between atoms: CA_14  and  C_19 
REMARK    7  A    between atoms: CB_15  and  CG_16 
REMARK       I    between atoms: C_19  and  N_21 
REMARK    8  A    between atoms: CA_22  and  C_26 
REMARK       I    between atoms: C_26  and  N_28 
REMARK    9  A    between atoms: N_28  and  CA_29 
REMARK   10  A    between atoms: CA_29  and  C_35 
REMARK   11  A    between atoms: CA_29  and  CB_30 
REMARK   12  A    between atoms: CB_30  and  CG_31 
REMARK   13  A    between atoms: CG_31  and  CD_32 
REMARK       I    between atoms: C_35  and  N_37 
REMARK   14  A    between atoms: N_37  and  CA_38 
REMARK   15  A    between atoms: CA_38  and  CB_39 
REMARK   16  A    between atoms: CA_38  and  C_47 
REMARK   17  A    between atoms: CB_39  and  CG_40 
REMARK       I    between atoms: C_47  and  N_49 
REMARK   18  A    between atoms: N_49  and  CA_50 
REMARK   19  A    between atoms: CA_50  and  CB_51 
REMARK   20  A    between atoms: CA_50  and  C_58 
REMARK   21  A    between atoms: CB_51  and  CG_52 
REMARK   22  A    between atoms: CG_52  and  CD_53 
REMARK   23  A    between atoms: CD_53  and  NE_54 
REMARK       I    between atoms: C_58  and  N_60 
REMARK   24  A    between atoms: N_60  and  CA_61 
REMARK   25  A    between atoms: CA_61  and  C_66 
REMARK   26  A    between atoms: CA_61  and  CB_62 
REMARK   27  A    between atoms: CB_62  and  CG_63 
REMARK       I    between atoms: C_66  and  N_68 
REMARK   28  A    between atoms: N_68  and  CA_69 
REMARK   29  A    between atoms: CA_69  and  CB_70 
REMARK   30  A    between atoms: CA_69  and  C_77 
REMARK   31  A    between atoms: CB_70  and  CG_71 
REMARK       I    between atoms: C_77  and  N_79 
REMARK   32  A    between atoms: N_79  and  CA_80 
REMARK   33  A    between atoms: CA_80  and  CB_81 
REMARK   34  A    between atoms: CA_80  and  C_91 
REMARK   35  A    between atoms: CB_81  and  CG_82 
REMARK       I    between atoms: C_91  and  N_93 
REMARK   36  A    between atoms: N_93  and  CA_94 
REMARK   37  A    between atoms: CA_94  and  C_95 
REMARK       I    between atoms: C_95  and  N_97 
REMARK   38  A    between atoms: N_97  and  CA_98 
REMARK   39  A    between atoms: CA_98  and  C_101 
REMARK   40  A    between atoms: CA_98  and  CB_99 
REMARK       I    between atoms: C_101  and  N_103 
REMARK   41  A    between atoms: N_103  and  CA_104 
REMARK   42  A    between atoms: CA_104  and  C_105 
ROOT
ATOM      1  CA  ARG     6       3.004 -22.719   7.479  1.00  0.00     0.186 C 
ENDROOT
BRANCH   1   2
ATOM      2  N   ARG     6       3.245 -21.291   7.796  1.00  0.00    -0.229 NA
ATOM      3  C   TYR     5       4.436 -20.838   8.209  1.00  0.00     0.275 C 
ATOM      4  O   TYR     5       5.416 -21.574   8.324  1.00  0.00    -0.268 OA
BRANCH   3   5
ATOM      5  CA  TYR     5       4.570 -19.323   8.432  1.00  0.00     0.191 C 
BRANCH   5   6
ATOM      6  N   TYR     5       5.941 -18.807   8.185  1.00  0.00    -0.228 NA
ATOM      7  C   GLU     4       6.386 -18.459   6.967  1.00  0.00     0.274 C 
ATOM      8  O   GLU     4       5.654 -18.406   5.987  1.00  0.00    -0.268 OA
BRANCH   7   9
ATOM      9  CA  GLU     4       7.785 -17.811   6.916  1.00  0.00     0.187 C 
BRANCH   9  10
ATOM     10  CB  GLU     4       7.687 -16.404   6.305  1.00  0.00     0.045 C 
BRANCH  10  11
ATOM     11  CG  GLU     4       8.600 -15.324   6.925  1.00  0.00     0.100 C 
BRANCH  11  12
ATOM     12  CD  GLU     4       8.094 -14.758   8.251  1.00  0.00     0.185 C 
ATOM     13  OE1 GLU     4       7.962 -13.509   8.334  1.00  0.00    -0.647 OA
ATOM     14  OE2 GLU     4       8.289 -15.453   9.269  1.00  0.00    -0.647 OA
ENDBRANCH  11  12
ENDBRANCH  10  11
ENDBRANCH   9  10
BRANCH   9  15
ATOM     15  N   GLU     4       8.763 -18.596   6.138  1.00  0.00    -0.229 NA
ATOM     16  C   PRO     3      10.080 -18.653   6.296  1.00  0.00     0.272 C 
ATOM     17  O   PRO     3      10.649 -18.351   7.346  1.00  0.00    -0.269 OA
BRANCH  16  18
ATOM     18  CA  PRO     3      10.816 -19.568   5.315  1.00  0.00     0.165 C 
ATOM     19  N   PRO     3      11.946 -18.935   4.602  1.00  0.00    -0.312 N 
ATOM     20  CD  PRO     3      13.076 -19.894   4.508  1.00  0.00     0.105 C 
ATOM     21  C   ASP     2      11.877 -17.733   4.003  1.00  0.00     0.257 C 
ATOM     22  CG  PRO     3      12.490 -21.222   5.011  1.00  0.00     0.027 C 
ATOM     23  CB  PRO     3      11.415 -20.792   6.005  1.00  0.00     0.034 C 
ATOM     24  O   ASP     2      10.780 -17.179   3.834  1.00  0.00    -0.270 OA
BRANCH  21  25
ATOM     25  CA  ASP     2      13.096 -17.206   3.212  1.00  0.00     0.195 C 
BRANCH  25  26
ATOM     26  CB  ASP     2      13.600 -15.788   3.585  1.00  0.00     0.132 C 
BRANCH  26  27
ATOM     27  CG  ASP     2      13.797 -14.936   2.317  1.00  0.00     0.188 C 
ATOM     28  OD2 ASP     2      14.983 -14.829   1.916  1.00  0.00    -0.647 OA
ATOM     29  OD1 ASP     2      12.975 -14.005   2.131  1.00  0.00    -0.647 OA
ENDBRANCH  26  27
ENDBRANCH  25  26
BRANCH  25  30
ATOM     30  N   ASP     2      12.807 -17.073   1.774  1.00  0.00    -0.228 NA
ATOM     31  C   TYR     1      13.054 -17.959   0.838  1.00  0.00     0.289 C 
ATOM     32  O   TYR     1      13.445 -19.123   0.976  1.00  0.00    -0.268 OA
BRANCH  31  33
ATOM     33  CA  TYR     1      12.823 -17.394  -0.560  1.00  0.00     0.385 C 
ATOM     34  N   TYR     1      13.821 -17.995  -1.460  1.00  0.00     0.626 N 
BRANCH  33  35
ATOM     35  CB  TYR     1      11.391 -17.740  -0.961  1.00  0.00     0.075 C 
BRANCH  35  36
ATOM     36  CG  TYR     1      10.430 -16.546  -0.850  1.00  0.00    -0.019 A 
ATOM     37  CD2 TYR     1      10.901 -15.253  -0.684  1.00  0.00    -0.002 A 
ATOM     38  CE2 TYR     1      10.023 -14.181  -0.723  1.00  0.00     0.027 A 
ATOM     39  CZ  TYR     1       8.664 -14.422  -0.925  1.00  0.00     0.131 A 
ATOM     40  CE1 TYR     1       8.196 -15.717  -1.049  1.00  0.00     0.027 A 
ATOM     41  OH  TYR     1       7.820 -13.395  -1.153  1.00  0.00    -0.190 OA
ATOM     42  CD1 TYR     1       9.074 -16.790  -1.010  1.00  0.00    -0.002 A 
ENDBRANCH  35  36
ENDBRANCH  33  35
ENDBRANCH  31  33
ENDBRANCH  25  30
ENDBRANCH  21  25
ENDBRANCH  16  18
ENDBRANCH   9  15
ENDBRANCH   7   9
ENDBRANCH   5   6
BRANCH   5  43
ATOM     43  CB  TYR     5       3.553 -18.550   7.575  1.00  0.00     0.060 C 
BRANCH  43  44
ATOM     44  CG  TYR     5       2.473 -17.865   8.429  1.00  0.00    -0.020 A 
ATOM     45  CD2 TYR     5       1.631 -16.910   7.872  1.00  0.00    -0.002 A 
ATOM     46  CE2 TYR     5       0.652 -16.301   8.650  1.00  0.00     0.027 A 
ATOM     47  CZ  TYR     5       0.513 -16.646   9.985  1.00  0.00     0.131 A 
ATOM     48  CE1 TYR     5       1.340 -17.614  10.546  1.00  0.00     0.027 A 
ATOM     49  OH  TYR     5      -0.338 -15.963  10.780  1.00  0.00    -0.190 OA
ATOM     50  CD1 TYR     5       2.327 -18.217   9.766  1.00  0.00    -0.002 A 
ENDBRANCH  43  44
ENDBRANCH   5  43
ENDBRANCH   3   5
ENDBRANCH   1   2
BRANCH   1  51
ATOM     51  CB  ARG     6       2.416 -23.496   8.653  1.00  0.00     0.036 C 
BRANCH  51  52
ATOM     52  CG  ARG     6       1.540 -22.646   9.576  1.00  0.00     0.029 C 
BRANCH  52  53
ATOM     53  CD  ARG     6       0.440 -23.500  10.200  1.00  0.00     0.145 C 
BRANCH  53  54
ATOM     54  NE  ARG     6      -0.764 -23.510   9.353  1.00  0.00    -0.083 NA
ATOM     55  CZ  ARG     6      -1.885 -22.798   9.579  1.00  0.00     0.782 C 
ATOM     56  NH2 ARG     6      -2.952 -22.947   8.791  1.00  0.00     0.063 N 
ATOM     57  NH1 ARG     6      -1.972 -22.003  10.639  1.00  0.00     0.063 N 
ENDBRANCH  53  54
ENDBRANCH  52  53
ENDBRANCH  51  52
ENDBRANCH   1  51
BRANCH   1  58
ATOM     58  C   ARG     6       2.039 -22.904   6.302  1.00  0.00     0.274 C 
ATOM     59  N   ASN     7       1.524 -24.123   6.165  1.00  0.00    -0.228 NA
ATOM     60  O   ARG     6       1.800 -21.947   5.564  1.00  0.00    -0.268 OA
BRANCH  59  61
ATOM     61  CA  ASN     7       0.504 -24.467   5.152  1.00  0.00     0.196 C 
BRANCH  61  62
ATOM     62  C   ASN     7      -0.913 -24.080   5.621  1.00  0.00     0.275 C 
ATOM     63  N   PHE     8      -1.567 -23.166   4.888  1.00  0.00    -0.228 NA
ATOM     64  O   ASN     7      -1.489 -24.864   6.350  1.00  0.00    -0.268 OA
BRANCH  63  65
ATOM     65  CA  PHE     8      -2.964 -22.730   5.126  1.00  0.00     0.191 C 
BRANCH  65  66
ATOM     66  CB  PHE     8      -3.030 -21.208   4.940  1.00  0.00     0.060 C 
BRANCH  66  67
ATOM     67  CG  PHE     8      -2.565 -20.396   6.164  1.00  0.00    -0.020 A 
ATOM     68  CD1 PHE     8      -1.209 -20.246   6.420  1.00  0.00    -0.004 A 
ATOM     69  CE1 PHE     8      -0.790 -19.598   7.582  1.00  0.00    -0.000 A 
ATOM     70  CZ  PHE     8      -1.731 -19.095   8.467  1.00  0.00    -0.000 A 
ATOM     71  CE2 PHE     8      -3.090 -19.233   8.205  1.00  0.00    -0.000 A 
ATOM     72  CD2 PHE     8      -3.509 -19.880   7.043  1.00  0.00    -0.004 A 
ENDBRANCH  66  67
ENDBRANCH  65  66
BRANCH  65  73
ATOM     73  C   PHE     8      -4.029 -23.456   4.274  1.00  0.00     0.275 C 
ATOM     74  N   TRP     9      -4.874 -22.681   3.592  1.00  0.00    -0.228 NA
ATOM     75  O   PHE     8      -4.243 -24.662   4.421  1.00  0.00    -0.268 OA
BRANCH  74  76
ATOM     76  CA  TRP     9      -5.864 -23.242   2.640  1.00  0.00     0.191 C 
BRANCH  76  77
ATOM     77  CB  TRP     9      -6.948 -22.184   2.371  1.00  0.00     0.062 C 
BRANCH  77  78
ATOM     78  CG  TRP     9      -8.221 -22.769   1.762  1.00  0.00     0.001 A 
ATOM     79  CD1 TRP     9      -9.063 -23.604   2.364  1.00  0.00     0.095 A 
ATOM     80  NE1 TRP     9      -9.883 -24.137   1.467  1.00  0.00    -0.244 NA
ATOM     81  CE2 TRP     9      -9.607 -23.647   0.267  1.00  0.00     0.081 A 
ATOM     82  CD2 TRP     9      -8.538 -22.776   0.407  1.00  0.00     0.015 A 
ATOM     83  CZ2 TRP     9     -10.097 -23.932  -1.007  1.00  0.00     0.019 A 
ATOM     84  CE3 TRP     9      -7.943 -22.198  -0.704  1.00  0.00     0.001 A 
ATOM     85  CZ3 TRP     9      -8.422 -22.490  -1.977  1.00  0.00     0.000 A 
ATOM     86  CH2 TRP     9      -9.513 -23.345  -2.120  1.00  0.00     0.002 A 
ENDBRANCH  77  78
ENDBRANCH  76  77
BRANCH  76  87
ATOM     87  C   TRP     9      -5.256 -23.781   1.326  1.00  0.00     0.275 C 
ATOM     88  O   TRP     9      -4.369 -23.166   0.743  1.00  0.00    -0.268 OA
ATOM     89  N   GLY    10      -5.678 -24.982   0.932  1.00  0.00    -0.226 NA
BRANCH  89  90
ATOM     90  CA  GLY    10      -5.182 -25.689  -0.281  1.00  0.00     0.218 C 
BRANCH  90  91
ATOM     91  C   GLY    10      -6.253 -26.245  -1.233  1.00  0.00     0.277 C 
ATOM     92  N   CYS    11      -5.795 -26.670  -2.409  1.00  0.00    -0.228 NA
ATOM     93  O   GLY    10      -7.444 -26.128  -0.968  1.00  0.00    -0.268 OA
BRANCH  92  94
ATOM     94  CA  CYS    11      -6.593 -27.269  -3.502  1.00  0.00     0.198 C 
BRANCH  94  95
ATOM     95  C   CYS    11      -6.683 -28.787  -3.252  1.00  0.00     0.275 C 
ATOM     96  O   CYS    11      -5.740 -29.359  -2.716  1.00  0.00    -0.268 OA
ATOM     97  N   GLY    12      -7.705 -29.411  -3.819  1.00  0.00    -0.225 NA
BRANCH  97  98
ATOM     98  CA  GLY    12      -7.930 -30.859  -3.693  1.00  0.00     0.226 C 
BRANCH  98  99
ATOM     99  C   GLY    12      -8.643 -31.117  -2.346  1.00  0.00     0.211 C 
ATOM    100  O1  GLY    12      -8.062 -31.884  -1.537  1.00  0.00    -0.646 OA
ATOM    101  O2  GLY    12      -9.719 -30.526  -2.136  1.00  0.00    -0.646 OA
ENDBRANCH  98  99
ENDBRANCH  97  98
ENDBRANCH  94  95
BRANCH  94 102
ATOM    102  CB  CYS    11      -5.862 -27.114  -4.834  1.00  0.00     0.103 C 
ATOM    103  SG  CYS    11      -6.906 -27.165  -6.340  1.00  0.00    -0.080 SA
ENDBRANCH  94 102
ENDBRANCH  92  94
ENDBRANCH  90  91
ENDBRANCH  89  90
ENDBRANCH  76  87
ENDBRANCH  74  76
ENDBRANCH  65  73
ENDBRANCH  63  65
ENDBRANCH  61  62
BRANCH  61 104
ATOM    104  CB  ASN     7       0.568 -25.953   4.780  1.00  0.00     0.126 C 
BRANCH 104 105
ATOM    105  CG  ASN     7       1.991 -26.513   4.593  1.00  0.00     0.276 C 
ATOM    106  ND2 ASN     7       2.416 -27.330   5.529  1.00  0.00    -0.107 N 
ATOM    107  OD1 ASN     7       2.787 -26.137   3.743  1.00  0.00    -0.269 OA
ENDBRANCH 104 105
ENDBRANCH  61 104
ENDBRANCH  59  61
ENDBRANCH   1  58
TORSDOF 42
ENDMDL
MODEL 8
REMARK VINA RESULT:      -5.6     25.712     35.263
REMARK WARNING: 32 MAX_TORS EXCEEDED!!!
REMARK  42 active torsions:
REMARK  status: ('A' for Active; 'I' for Inactive)
REMARK    1  A    between atoms: CA_2  and  CB_3 
REMARK    2  A    between atoms: CA_2  and  C_11 
REMARK    3  A    between atoms: CB_3  and  CG_4 
REMARK       I    between atoms: C_11  and  N_13 
REMARK    4  A    between atoms: N_13  and  CA_14 
REMARK    5  A    between atoms: CA_14  and  CB_15 
REMARK    6  A    between atoms: CA_14  and  C_19 
REMARK    7  A    between atoms: CB_15  and  CG_16 
REMARK       I    between atoms: C_19  and  N_21 
REMARK    8  A    between atoms: CA_22  and  C_26 
REMARK       I    between atoms: C_26  and  N_28 
REMARK    9  A    between atoms: N_28  and  CA_29 
REMARK   10  A    between atoms: CA_29  and  C_35 
REMARK   11  A    between atoms: CA_29  and  CB_30 
REMARK   12  A    between atoms: CB_30  and  CG_31 
REMARK   13  A    between atoms: CG_31  and  CD_32 
REMARK       I    between atoms: C_35  and  N_37 
REMARK   14  A    between atoms: N_37  and  CA_38 
REMARK   15  A    between atoms: CA_38  and  CB_39 
REMARK   16  A    between atoms: CA_38  and  C_47 
REMARK   17  A    between atoms: CB_39  and  CG_40 
REMARK       I    between atoms: C_47  and  N_49 
REMARK   18  A    between atoms: N_49  and  CA_50 
REMARK   19  A    between atoms: CA_50  and  CB_51 
REMARK   20  A    between atoms: CA_50  and  C_58 
REMARK   21  A    between atoms: CB_51  and  CG_52 
REMARK   22  A    between atoms: CG_52  and  CD_53 
REMARK   23  A    between atoms: CD_53  and  NE_54 
REMARK       I    between atoms: C_58  and  N_60 
REMARK   24  A    between atoms: N_60  and  CA_61 
REMARK   25  A    between atoms: CA_61  and  C_66 
REMARK   26  A    between atoms: CA_61  and  CB_62 
REMARK   27  A    between atoms: CB_62  and  CG_63 
REMARK       I    between atoms: C_66  and  N_68 
REMARK   28  A    between atoms: N_68  and  CA_69 
REMARK   29  A    between atoms: CA_69  and  CB_70 
REMARK   30  A    between atoms: CA_69  and  C_77 
REMARK   31  A    between atoms: CB_70  and  CG_71 
REMARK       I    between atoms: C_77  and  N_79 
REMARK   32  A    between atoms: N_79  and  CA_80 
REMARK   33  A    between atoms: CA_80  and  CB_81 
REMARK   34  A    between atoms: CA_80  and  C_91 
REMARK   35  A    between atoms: CB_81  and  CG_82 
REMARK       I    between atoms: C_91  and  N_93 
REMARK   36  A    between atoms: N_93  and  CA_94 
REMARK   37  A    between atoms: CA_94  and  C_95 
REMARK       I    between atoms: C_95  and  N_97 
REMARK   38  A    between atoms: N_97  and  CA_98 
REMARK   39  A    between atoms: CA_98  and  C_101 
REMARK   40  A    between atoms: CA_98  and  CB_99 
REMARK       I    between atoms: C_101  and  N_103 
REMARK   41  A    between atoms: N_103  and  CA_104 
REMARK   42  A    between atoms: CA_104  and  C_105 
ROOT
ATOM      1  CA  ARG     6      16.124   7.506   0.731  1.00  0.00     0.186 C 
ENDROOT
BRANCH   1   2
ATOM      2  N   ARG     6      15.469   8.400   1.715  1.00  0.00    -0.229 NA
ATOM      3  C   TYR     5      14.164   8.694   1.659  1.00  0.00     0.275 C 
ATOM      4  O   TYR     5      13.417   8.218   0.803  1.00  0.00    -0.268 OA
BRANCH   3   5
ATOM      5  CA  TYR     5      13.595   9.575   2.784  1.00  0.00     0.191 C 
BRANCH   5   6
ATOM      6  N   TYR     5      13.506  11.013   2.423  1.00  0.00    -0.228 NA
ATOM      7  C   GLU     4      14.506  11.886   2.632  1.00  0.00     0.274 C 
ATOM      8  O   GLU     4      15.618  11.538   3.006  1.00  0.00    -0.268 OA
BRANCH   7   9
ATOM      9  CA  GLU     4      14.294  13.306   2.069  1.00  0.00     0.187 C 
BRANCH   9  10
ATOM     10  CB  GLU     4      12.823  13.490   1.660  1.00  0.00     0.045 C 
BRANCH  10  11
ATOM     11  CG  GLU     4      11.951  14.339   2.611  1.00  0.00     0.100 C 
BRANCH  11  12
ATOM     12  CD  GLU     4      11.181  13.526   3.651  1.00  0.00     0.185 C 
ATOM     13  OE1 GLU     4       9.976  13.261   3.402  1.00  0.00    -0.647 OA
ATOM     14  OE2 GLU     4      11.597  13.582   4.826  1.00  0.00    -0.647 OA
ENDBRANCH  11  12
ENDBRANCH  10  11
ENDBRANCH   9  10
BRANCH   9  15
ATOM     15  N   GLU     4      15.148  13.603   0.903  1.00  0.00    -0.229 NA
ATOM     16  C   PRO     3      14.892  14.417  -0.115  1.00  0.00     0.272 C 
ATOM     17  O   PRO     3      14.067  15.330  -0.059  1.00  0.00    -0.269 OA
BRANCH  16  18
ATOM     18  CA  PRO     3      15.993  14.504  -1.173  1.00  0.00     0.165 C 
ATOM     19  N   PRO     3      15.545  14.248  -2.559  1.00  0.00    -0.312 N 
ATOM     20  CD  PRO     3      16.217  15.196  -3.484  1.00  0.00     0.105 C 
ATOM     21  C   ASP     2      14.770  13.208  -2.918  1.00  0.00     0.257 C 
ATOM     22  CG  PRO     3      17.266  15.900  -2.610  1.00  0.00     0.027 C 
ATOM     23  CB  PRO     3      16.647  15.884  -1.215  1.00  0.00     0.034 C 
ATOM     24  O   ASP     2      14.563  12.278  -2.124  1.00  0.00    -0.270 OA
BRANCH  21  25
ATOM     25  CA  ASP     2      14.434  12.990  -4.410  1.00  0.00     0.195 C 
BRANCH  25  26
ATOM     26  CB  ASP     2      12.962  12.628  -4.739  1.00  0.00     0.132 C 
BRANCH  26  27
ATOM     27  CG  ASP     2      12.125  13.906  -4.934  1.00  0.00     0.188 C 
ATOM     28  OD2 ASP     2      10.940  13.724  -5.313  1.00  0.00    -0.647 OA
ATOM     29  OD1 ASP     2      12.748  14.943  -5.270  1.00  0.00    -0.647 OA
ENDBRANCH  26  27
ENDBRANCH  25  26
BRANCH  25  30
ATOM     30  N   ASP     2      15.177  11.856  -4.985  1.00  0.00    -0.228 NA
ATOM     31  C   TYR     1      15.522  11.701  -6.242  1.00  0.00     0.289 C 
ATOM     32  O   TYR     1      15.422  12.516  -7.165  1.00  0.00    -0.268 OA
BRANCH  31  33
ATOM     33  CA  TYR     1      16.087  10.309  -6.512  1.00  0.00     0.385 C 
ATOM     34  N   TYR     1      16.581  10.284  -7.898  1.00  0.00     0.626 N 
BRANCH  33  35
ATOM     35  CB  TYR     1      17.196  10.063  -5.492  1.00  0.00     0.075 C 
BRANCH  35  36
ATOM     36  CG  TYR     1      17.367   8.578  -5.137  1.00  0.00    -0.019 A 
ATOM     37  CD2 TYR     1      18.276   8.165  -4.175  1.00  0.00    -0.002 A 
ATOM     38  CE2 TYR     1      18.315   6.837  -3.777  1.00  0.00     0.027 A 
ATOM     39  CZ  TYR     1      17.436   5.926  -4.361  1.00  0.00     0.131 A 
ATOM     40  CE1 TYR     1      16.560   6.337  -5.350  1.00  0.00     0.027 A 
ATOM     41  OH  TYR     1      17.323   4.678  -3.863  1.00  0.00    -0.190 OA
ATOM     42  CD1 TYR     1      16.521   7.665  -5.748  1.00  0.00    -0.002 A 
ENDBRANCH  35  36
ENDBRANCH  33  35
ENDBRANCH  31  33
ENDBRANCH  25  30
ENDBRANCH  21  25
ENDBRANCH  16  18
ENDBRANCH   9  15
ENDBRANCH   7   9
ENDBRANCH   5   6
BRANCH   5  43
ATOM     43  CB  TYR     5      12.221   9.059   3.243  1.00  0.00     0.060 C 
BRANCH  43  44
ATOM     44  CG  TYR     5      11.754   9.726   4.548  1.00  0.00    -0.020 A 
ATOM     45  CD2 TYR     5      10.413  10.027   4.747  1.00  0.00    -0.002 A 
ATOM     46  CE2 TYR     5       9.999  10.624   5.934  1.00  0.00     0.027 A 
ATOM     47  CZ  TYR     5      10.926  10.920   6.922  1.00  0.00     0.131 A 
ATOM     48  CE1 TYR     5      12.267  10.606   6.737  1.00  0.00     0.027 A 
ATOM     49  OH  TYR     5      10.555  11.623   8.014  1.00  0.00    -0.190 OA
ATOM     50  CD1 TYR     5      12.681  10.015   5.543  1.00  0.00    -0.002 A 
ENDBRANCH  43  44
ENDBRANCH   5  43
ENDBRANCH   3   5
ENDBRANCH   1   2
BRANCH   1  51
ATOM     51  CB  ARG     6      17.562   7.914   0.424  1.00  0.00     0.036 C 
BRANCH  51  52
ATOM     52  CG  ARG     6      17.673   9.059  -0.586  1.00  0.00     0.029 C 
BRANCH  52  53
ATOM     53  CD  ARG     6      17.865  10.389   0.137  1.00  0.00     0.145 C 
BRANCH  53  54
ATOM     54  NE  ARG     6      18.565  10.197   1.418  1.00  0.00    -0.083 NA
ATOM     55  CZ  ARG     6      19.823  10.596   1.688  1.00  0.00     0.782 C 
ATOM     56  NH2 ARG     6      20.392  10.296   2.858  1.00  0.00     0.063 N 
ATOM     57  NH1 ARG     6      20.543  11.217   0.761  1.00  0.00     0.063 N 
ENDBRANCH  53  54
ENDBRANCH  52  53
ENDBRANCH  51  52
ENDBRANCH   1  51
BRANCH   1  58
ATOM     58  C   ARG     6      16.174   6.048   1.205  1.00  0.00     0.274 C 
ATOM     59  N   ASN     7      16.343   5.872   2.513  1.00  0.00    -0.228 NA
ATOM     60  O   ARG     6      16.062   5.143   0.378  1.00  0.00    -0.268 OA
BRANCH  59  61
ATOM     61  CA  ASN     7      16.319   4.547   3.166  1.00  0.00     0.196 C 
BRANCH  61  62
ATOM     62  C   ASN     7      15.470   4.565   4.453  1.00  0.00     0.275 C 
ATOM     63  N   PHE     8      14.167   4.850   4.317  1.00  0.00    -0.228 NA
ATOM     64  O   ASN     7      15.909   3.964   5.414  1.00  0.00    -0.268 OA
BRANCH  63  65
ATOM     65  CA  PHE     8      13.175   4.832   5.420  1.00  0.00     0.191 C 
BRANCH  65  66
ATOM     66  CB  PHE     8      12.320   6.103   5.319  1.00  0.00     0.060 C 
BRANCH  66  67
ATOM     67  CG  PHE     8      11.848   6.662   6.675  1.00  0.00    -0.020 A 
ATOM     68  CD1 PHE     8      10.501   6.923   6.885  1.00  0.00    -0.004 A 
ATOM     69  CE1 PHE     8      10.088   7.523   8.074  1.00  0.00    -0.000 A 
ATOM     70  CZ  PHE     8      11.023   7.841   9.045  1.00  0.00    -0.000 A 
ATOM     71  CE2 PHE     8      12.372   7.568   8.842  1.00  0.00    -0.000 A 
ATOM     72  CD2 PHE     8      12.785   6.968   7.653  1.00  0.00    -0.004 A 
ENDBRANCH  66  67
ENDBRANCH  65  66
BRANCH  65  73
ATOM     73  C   PHE     8      12.300   3.560   5.490  1.00  0.00     0.275 C 
ATOM     74  N   TRP     9      11.586   3.270   4.401  1.00  0.00    -0.228 NA
ATOM     75  O   PHE     8      12.082   2.999   6.567  1.00  0.00    -0.268 OA
BRANCH  74  76
ATOM     76  CA  TRP     9      10.801   2.016   4.285  1.00  0.00     0.191 C 
BRANCH  76  77
ATOM     77  CB  TRP     9       9.312   2.375   4.150  1.00  0.00     0.062 C 
BRANCH  77  78
ATOM     78  CG  TRP     9       8.413   1.580   5.096  1.00  0.00     0.001 A 
ATOM     79  CD1 TRP     9       8.311   0.255   5.147  1.00  0.00     0.095 A 
ATOM     80  NE1 TRP     9       7.244  -0.086   5.858  1.00  0.00    -0.244 NA
ATOM     81  CE2 TRP     9       6.640   1.007   6.302  1.00  0.00     0.081 A 
ATOM     82  CD2 TRP     9       7.349   2.099   5.826  1.00  0.00     0.015 A 
ATOM     83  CZ2 TRP     9       5.455   1.214   7.006  1.00  0.00     0.019 A 
ATOM     84  CE3 TRP     9       6.884   3.390   6.028  1.00  0.00     0.001 A 
ATOM     85  CZ3 TRP     9       5.695   3.598   6.718  1.00  0.00     0.000 A 
ATOM     86  CH2 TRP     9       4.994   2.504   7.222  1.00  0.00     0.002 A 
ENDBRANCH  77  78
ENDBRANCH  76  77
BRANCH  76  87
ATOM     87  C   TRP     9      11.264   1.071   3.153  1.00  0.00     0.275 C 
ATOM     88  O   TRP     9      10.503   0.758   2.243  1.00  0.00    -0.268 OA
ATOM     89  N   GLY    10      12.547   0.711   3.175  1.00  0.00    -0.226 NA
BRANCH  89  90
ATOM     90  CA  GLY    10      13.192  -0.156   2.152  1.00  0.00     0.218 C 
BRANCH  90  91
ATOM     91  C   GLY    10      14.346   0.473   1.355  1.00  0.00     0.277 C 
ATOM     92  N   CYS    11      14.831  -0.286   0.373  1.00  0.00    -0.228 NA
ATOM     93  O   GLY    10      14.870   1.515   1.732  1.00  0.00    -0.268 OA
BRANCH  92  94
ATOM     94  CA  CYS    11      15.920   0.073  -0.563  1.00  0.00     0.198 C 
BRANCH  94  95
ATOM     95  C   CYS    11      15.438  -0.228  -1.996  1.00  0.00     0.275 C 
ATOM     96  O   CYS    11      15.778  -1.278  -2.531  1.00  0.00    -0.268 OA
ATOM     97  N   GLY    12      14.844   0.771  -2.632  1.00  0.00    -0.225 NA
BRANCH  97  98
ATOM     98  CA  GLY    12      14.339   0.657  -4.009  1.00  0.00     0.226 C 
BRANCH  98  99
ATOM     99  C   GLY    12      14.599   2.003  -4.726  1.00  0.00     0.211 C 
ATOM    100  O1  GLY    12      14.466   3.045  -4.036  1.00  0.00    -0.646 OA
ATOM    101  O2  GLY    12      14.955   1.965  -5.919  1.00  0.00    -0.646 OA
ENDBRANCH  98  99
ENDBRANCH  97  98
ENDBRANCH  94  95
BRANCH  94 102
ATOM    102  CB  CYS    11      17.129  -0.832  -0.337  1.00  0.00     0.103 C 
ATOM    103  SG  CYS    11      16.849  -2.302   0.725  1.00  0.00    -0.080 SA
ENDBRANCH  94 102
ENDBRANCH  92  94
ENDBRANCH  90  91
ENDBRANCH  89  90
ENDBRANCH  76  87
ENDBRANCH  74  76
ENDBRANCH  65  73
ENDBRANCH  63  65
ENDBRANCH  61  62
BRANCH  61 104
ATOM    104  CB  ASN     7      17.738   4.042   3.456  1.00  0.00     0.126 C 
BRANCH 104 105
ATOM    105  CG  ASN     7      18.253   2.966   2.483  1.00  0.00     0.276 C 
ATOM    106  ND2 ASN     7      18.066   1.719   2.852  1.00  0.00    -0.107 N 
ATOM    107  OD1 ASN     7      18.944   3.183   1.496  1.00  0.00    -0.269 OA
ENDBRANCH 104 105
ENDBRANCH  61 104
ENDBRANCH  59  61
ENDBRANCH   1  58
TORSDOF 42
ENDMDL
MODEL 9
REMARK VINA RESULT:      -5.5      5.174     15.577
REMARK WARNING: 32 MAX_TORS EXCEEDED!!!
REMARK  42 active torsions:
REMARK  status: ('A' for Active; 'I' for Inactive)
REMARK    1  A    between atoms: CA_2  and  CB_3 
REMARK    2  A    between atoms: CA_2  and  C_11 
REMARK    3  A    between atoms: CB_3  and  CG_4 
REMARK       I    between atoms: C_11  and  N_13 
REMARK    4  A    between atoms: N_13  and  CA_14 
REMARK    5  A    between atoms: CA_14  and  CB_15 
REMARK    6  A    between atoms: CA_14  and  C_19 
REMARK    7  A    between atoms: CB_15  and  CG_16 
REMARK       I    between atoms: C_19  and  N_21 
REMARK    8  A    between atoms: CA_22  and  C_26 
REMARK       I    between atoms: C_26  and  N_28 
REMARK    9  A    between atoms: N_28  and  CA_29 
REMARK   10  A    between atoms: CA_29  and  C_35 
REMARK   11  A    between atoms: CA_29  and  CB_30 
REMARK   12  A    between atoms: CB_30  and  CG_31 
REMARK   13  A    between atoms: CG_31  and  CD_32 
REMARK       I    between atoms: C_35  and  N_37 
REMARK   14  A    between atoms: N_37  and  CA_38 
REMARK   15  A    between atoms: CA_38  and  CB_39 
REMARK   16  A    between atoms: CA_38  and  C_47 
REMARK   17  A    between atoms: CB_39  and  CG_40 
REMARK       I    between atoms: C_47  and  N_49 
REMARK   18  A    between atoms: N_49  and  CA_50 
REMARK   19  A    between atoms: CA_50  and  CB_51 
REMARK   20  A    between atoms: CA_50  and  C_58 
REMARK   21  A    between atoms: CB_51  and  CG_52 
REMARK   22  A    between atoms: CG_52  and  CD_53 
REMARK   23  A    between atoms: CD_53  and  NE_54 
REMARK       I    between atoms: C_58  and  N_60 
REMARK   24  A    between atoms: N_60  and  CA_61 
REMARK   25  A    between atoms: CA_61  and  C_66 
REMARK   26  A    between atoms: CA_61  and  CB_62 
REMARK   27  A    between atoms: CB_62  and  CG_63 
REMARK       I    between atoms: C_66  and  N_68 
REMARK   28  A    between atoms: N_68  and  CA_69 
REMARK   29  A    between atoms: CA_69  and  CB_70 
REMARK   30  A    between atoms: CA_69  and  C_77 
REMARK   31  A    between atoms: CB_70  and  CG_71 
REMARK       I    between atoms: C_77  and  N_79 
REMARK   32  A    between atoms: N_79  and  CA_80 
REMARK   33  A    between atoms: CA_80  and  CB_81 
REMARK   34  A    between atoms: CA_80  and  C_91 
REMARK   35  A    between atoms: CB_81  and  CG_82 
REMARK       I    between atoms: C_91  and  N_93 
REMARK   36  A    between atoms: N_93  and  CA_94 
REMARK   37  A    between atoms: CA_94  and  C_95 
REMARK       I    between atoms: C_95  and  N_97 
REMARK   38  A    between atoms: N_97  and  CA_98 
REMARK   39  A    between atoms: CA_98  and  C_101 
REMARK   40  A    between atoms: CA_98  and  CB_99 
REMARK       I    between atoms: C_101  and  N_103 
REMARK   41  A    between atoms: N_103  and  CA_104 
REMARK   42  A    between atoms: CA_104  and  C_105 
ROOT
ATOM      1  CA  ARG     6      -6.131 -23.822   1.371  1.00  0.00     0.186 C 
ENDROOT
BRANCH   1   2
ATOM      2  N   ARG     6      -6.246 -25.266   1.063  1.00  0.00    -0.229 NA
ATOM      3  C   TYR     5      -5.695 -26.212   1.835  1.00  0.00     0.275 C 
ATOM      4  O   TYR     5      -5.081 -25.943   2.868  1.00  0.00    -0.268 OA
BRANCH   3   5
ATOM      5  CA  TYR     5      -5.953 -27.675   1.443  1.00  0.00     0.191 C 
BRANCH   5   6
ATOM      6  N   TYR     5      -5.483 -28.653   2.458  1.00  0.00    -0.228 NA
ATOM      7  C   GLU     4      -4.738 -29.728   2.153  1.00  0.00     0.274 C 
ATOM      8  O   GLU     4      -4.270 -29.911   1.036  1.00  0.00    -0.268 OA
BRANCH   7   9
ATOM      9  CA  GLU     4      -4.222 -30.556   3.347  1.00  0.00     0.187 C 
BRANCH   9  10
ATOM     10  CB  GLU     4      -5.370 -31.390   3.938  1.00  0.00     0.045 C 
BRANCH  10  11
ATOM     11  CG  GLU     4      -6.311 -30.658   4.920  1.00  0.00     0.100 C 
BRANCH  11  12
ATOM     12  CD  GLU     4      -6.319 -31.237   6.334  1.00  0.00     0.185 C 
ATOM     13  OE1 GLU     4      -7.043 -30.664   7.190  1.00  0.00    -0.647 OA
ATOM     14  OE2 GLU     4      -5.314 -31.892   6.677  1.00  0.00    -0.647 OA
ENDBRANCH  11  12
ENDBRANCH  10  11
ENDBRANCH   9  10
BRANCH   9  15
ATOM     15  N   GLU     4      -3.639 -29.728   4.421  1.00  0.00    -0.229 NA
ATOM     16  C   PRO     3      -2.680 -30.055   5.279  1.00  0.00     0.272 C 
ATOM     17  O   PRO     3      -1.872 -30.963   5.077  1.00  0.00    -0.269 OA
BRANCH  16  18
ATOM     18  CA  PRO     3      -2.301 -28.963   6.281  1.00  0.00     0.165 C 
ATOM     19  N   PRO     3      -1.944 -27.662   5.676  1.00  0.00    -0.312 N 
ATOM     20  CD  PRO     3      -2.517 -26.559   6.490  1.00  0.00     0.105 C 
ATOM     21  C   ASP     2      -1.098 -27.522   4.639  1.00  0.00     0.257 C 
ATOM     22  CG  PRO     3      -3.057 -27.257   7.748  1.00  0.00     0.027 C 
ATOM     23  CB  PRO     3      -3.434 -28.651   7.255  1.00  0.00     0.034 C 
ATOM     24  O   ASP     2      -0.399 -28.477   4.268  1.00  0.00    -0.270 OA
BRANCH  21  25
ATOM     25  CA  ASP     2      -0.730 -26.105   4.144  1.00  0.00     0.195 C 
BRANCH  25  26
ATOM     26  CB  ASP     2       0.038 -26.023   2.799  1.00  0.00     0.132 C 
BRANCH  26  27
ATOM     27  CG  ASP     2      -0.777 -25.228   1.762  1.00  0.00     0.188 C 
ATOM     28  OD2 ASP     2      -0.454 -24.020   1.629  1.00  0.00    -0.647 OA
ATOM     29  OD1 ASP     2      -1.965 -25.593   1.578  1.00  0.00    -0.647 OA
ENDBRANCH  26  27
ENDBRANCH  25  26
BRANCH  25  30
ATOM     30  N   ASP     2       0.178 -25.411   5.072  1.00  0.00    -0.228 NA
ATOM     31  C   TYR     1       0.210 -24.123   5.324  1.00  0.00     0.289 C 
ATOM     32  O   TYR     1      -0.585 -23.255   4.950  1.00  0.00    -0.268 OA
BRANCH  31  33
ATOM     33  CA  TYR     1       1.420 -23.736   6.169  1.00  0.00     0.385 C 
ATOM     34  N   TYR     1       2.553 -24.577   5.746  1.00  0.00     0.626 N 
BRANCH  33  35
ATOM     35  CB  TYR     1       1.678 -22.249   5.940  1.00  0.00     0.075 C 
BRANCH  35  36
ATOM     36  CG  TYR     1       1.830 -21.457   7.248  1.00  0.00    -0.019 A 
ATOM     37  CD2 TYR     1       3.041 -21.397   7.920  1.00  0.00    -0.002 A 
ATOM     38  CE2 TYR     1       3.186 -20.568   9.022  1.00  0.00     0.027 A 
ATOM     39  CZ  TYR     1       2.100 -19.803   9.446  1.00  0.00     0.131 A 
ATOM     40  CE1 TYR     1       0.883 -19.899   8.796  1.00  0.00     0.027 A 
ATOM     41  OH  TYR     1       2.265 -18.856  10.391  1.00  0.00    -0.190 OA
ATOM     42  CD1 TYR     1       0.737 -20.729   7.694  1.00  0.00    -0.002 A 
ENDBRANCH  35  36
ENDBRANCH  33  35
ENDBRANCH  31  33
ENDBRANCH  25  30
ENDBRANCH  21  25
ENDBRANCH  16  18
ENDBRANCH   9  15
ENDBRANCH   7   9
ENDBRANCH   5   6
BRANCH   5  43
ATOM     43  CB  TYR     5      -7.442 -27.908   1.137  1.00  0.00     0.060 C 
BRANCH  43  44
ATOM     44  CG  TYR     5      -7.667 -28.468  -0.278  1.00  0.00    -0.020 A 
ATOM     45  CD2 TYR     5      -7.567 -29.832  -0.522  1.00  0.00    -0.002 A 
ATOM     46  CE2 TYR     5      -7.779 -30.330  -1.804  1.00  0.00     0.027 A 
ATOM     47  CZ  TYR     5      -8.090 -29.465  -2.842  1.00  0.00     0.131 A 
ATOM     48  CE1 TYR     5      -8.209 -28.100  -2.602  1.00  0.00     0.027 A 
ATOM     49  OH  TYR     5      -8.160 -29.921  -4.111  1.00  0.00    -0.190 OA
ATOM     50  CD1 TYR     5      -7.987 -27.602  -1.318  1.00  0.00    -0.002 A 
ENDBRANCH  43  44
ENDBRANCH   5  43
ENDBRANCH   3   5
ENDBRANCH   1   2
BRANCH   1  51
ATOM     51  CB  ARG     6      -5.002 -23.139   0.604  1.00  0.00     0.036 C 
BRANCH  51  52
ATOM     52  CG  ARG     6      -3.820 -22.730   1.486  1.00  0.00     0.029 C 
BRANCH  52  53
ATOM     53  CD  ARG     6      -4.224 -22.744   2.957  1.00  0.00     0.145 C 
BRANCH  53  54
ATOM     54  NE  ARG     6      -3.556 -21.661   3.698  1.00  0.00    -0.083 NA
ATOM     55  CZ  ARG     6      -3.682 -21.425   5.018  1.00  0.00     0.782 C 
ATOM     56  NH2 ARG     6      -3.096 -20.362   5.575  1.00  0.00     0.063 N 
ATOM     57  NH1 ARG     6      -4.460 -22.198   5.767  1.00  0.00     0.063 N 
ENDBRANCH  53  54
ENDBRANCH  52  53
ENDBRANCH  51  52
ENDBRANCH   1  51
BRANCH   1  58
ATOM     58  C   ARG     6      -7.414 -23.048   1.044  1.00  0.00     0.274 C 
ATOM     59  N   ASN     7      -8.127 -23.517   0.024  1.00  0.00    -0.228 NA
ATOM     60  O   ARG     6      -7.709 -22.060   1.719  1.00  0.00    -0.268 OA
BRANCH  59  61
ATOM     61  CA  ASN     7      -9.437 -22.964  -0.376  1.00  0.00     0.196 C 
BRANCH  61  62
ATOM     62  C   ASN     7     -10.364 -24.058  -0.944  1.00  0.00     0.275 C 
ATOM     63  N   PHE     8     -10.754 -25.022  -0.097  1.00  0.00    -0.228 NA
ATOM     64  O   ASN     7     -10.981 -23.790  -1.956  1.00  0.00    -0.268 OA
BRANCH  63  65
ATOM     65  CA  PHE     8     -11.709 -26.108  -0.430  1.00  0.00     0.191 C 
BRANCH  65  66
ATOM     66  CB  PHE     8     -11.251 -27.387   0.284  1.00  0.00     0.060 C 
BRANCH  66  67
ATOM     67  CG  PHE     8     -11.410 -28.673  -0.549  1.00  0.00    -0.020 A 
ATOM     68  CD1 PHE     8     -11.125 -29.906   0.021  1.00  0.00    -0.004 A 
ATOM     69  CE1 PHE     8     -11.171 -31.059  -0.762  1.00  0.00    -0.000 A 
ATOM     70  CZ  PHE     8     -11.516 -30.969  -2.101  1.00  0.00    -0.000 A 
ATOM     71  CE2 PHE     8     -11.814 -29.735  -2.670  1.00  0.00    -0.000 A 
ATOM     72  CD2 PHE     8     -11.768 -28.582  -1.887  1.00  0.00    -0.004 A 
ENDBRANCH  66  67
ENDBRANCH  65  66
BRANCH  65  73
ATOM     73  C   PHE     8     -13.191 -25.787  -0.133  1.00  0.00     0.275 C 
ATOM     74  N   TRP     9     -13.536 -25.711   1.153  1.00  0.00    -0.228 NA
ATOM     75  O   PHE     8     -14.044 -25.853  -1.022  1.00  0.00    -0.268 OA
BRANCH  74  76
ATOM     76  CA  TRP     9     -14.893 -25.291   1.582  1.00  0.00     0.191 C 
BRANCH  76  77
ATOM     77  CB  TRP     9     -15.585 -26.478   2.270  1.00  0.00     0.062 C 
BRANCH  77  78
ATOM     78  CG  TRP     9     -16.305 -27.405   1.292  1.00  0.00     0.001 A 
ATOM     79  CD1 TRP     9     -17.575 -27.305   0.912  1.00  0.00     0.095 A 
ATOM     80  NE1 TRP     9     -17.950 -28.422   0.301  1.00  0.00    -0.244 NA
ATOM     81  CE2 TRP     9     -16.928 -29.264   0.252  1.00  0.00     0.081 A 
ATOM     82  CD2 TRP     9     -15.856 -28.659   0.888  1.00  0.00     0.015 A 
ATOM     83  CZ2 TRP     9     -16.807 -30.581  -0.191  1.00  0.00     0.019 A 
ATOM     84  CE3 TRP     9     -14.673 -29.351   1.102  1.00  0.00     0.001 A 
ATOM     85  CZ3 TRP     9     -14.555 -30.669   0.673  1.00  0.00     0.000 A 
ATOM     86  CH2 TRP     9     -15.622 -31.273   0.009  1.00  0.00     0.002 A 
ENDBRANCH  77  78
ENDBRANCH  76  77
BRANCH  76  87
ATOM     87  C   TRP     9     -14.922 -24.023   2.465  1.00  0.00     0.275 C 
ATOM     88  O   TRP     9     -14.778 -24.100   3.682  1.00  0.00    -0.268 OA
ATOM     89  N   GLY    10     -15.010 -22.860   1.822  1.00  0.00    -0.226 NA
BRANCH  89  90
ATOM     90  CA  GLY    10     -15.010 -21.530   2.491  1.00  0.00     0.218 C 
BRANCH  90  91
ATOM     91  C   GLY    10     -13.706 -20.720   2.399  1.00  0.00     0.277 C 
ATOM     92  N   CYS    11     -13.016 -20.633   3.535  1.00  0.00    -0.228 NA
ATOM     93  O   GLY    10     -13.443 -20.074   1.391  1.00  0.00    -0.268 OA
BRANCH  92  94
ATOM     94  CA  CYS    11     -11.723 -19.939   3.730  1.00  0.00     0.198 C 
BRANCH  94  95
ATOM     95  C   CYS    11     -10.725 -20.948   4.333  1.00  0.00     0.275 C 
ATOM     96  O   CYS    11     -11.150 -21.998   4.802  1.00  0.00    -0.268 OA
ATOM     97  N   GLY    12      -9.481 -20.518   4.482  1.00  0.00    -0.225 NA
BRANCH  97  98
ATOM     98  CA  GLY    12      -8.409 -21.347   5.055  1.00  0.00     0.226 C 
BRANCH  98  99
ATOM     99  C   GLY    12      -7.896 -20.646   6.334  1.00  0.00     0.211 C 
ATOM    100  O1  GLY    12      -7.451 -21.390   7.245  1.00  0.00    -0.646 OA
ATOM    101  O2  GLY    12      -7.923 -19.402   6.364  1.00  0.00    -0.646 OA
ENDBRANCH  98  99
ENDBRANCH  97  98
ENDBRANCH  94  95
BRANCH  94 102
ATOM    102  CB  CYS    11     -11.871 -18.834   4.773  1.00  0.00     0.103 C 
ATOM    103  SG  CYS    11     -13.364 -18.919   5.835  1.00  0.00    -0.080 SA
ENDBRANCH  94 102
ENDBRANCH  92  94
ENDBRANCH  90  91
ENDBRANCH  89  90
ENDBRANCH  76  87
ENDBRANCH  74  76
ENDBRANCH  65  73
ENDBRANCH  63  65
ENDBRANCH  61  62
BRANCH  61 104
ATOM    104  CB  ASN     7      -9.275 -21.814  -1.378  1.00  0.00     0.126 C 
BRANCH 104 105
ATOM    105  CG  ASN     7     -10.167 -20.589  -1.106  1.00  0.00     0.276 C 
ATOM    106  ND2 ASN     7     -10.557 -19.914  -2.163  1.00  0.00    -0.107 N 
ATOM    107  OD1 ASN     7     -10.401 -20.121   0.001  1.00  0.00    -0.269 OA
ENDBRANCH 104 105
ENDBRANCH  61 104
ENDBRANCH  59  61
ENDBRANCH   1  58
TORSDOF 42
ENDMDL
