MODEL 1
REMARK VINA RESULT:      -6.4      0.000      0.000
REMARK WARNING: 32 MAX_TORS EXCEEDED!!!
REMARK  33 active torsions:
REMARK  status: ('A' for Active; 'I' for Inactive)
REMARK    1  A    between atoms: CA_2  and  C_8 
REMARK    2  A    between atoms: CA_2  and  CB_3 
REMARK    3  A    between atoms: CB_3  and  CG_4 
REMARK    4  A    between atoms: CG_4  and  CD_5 
REMARK       I    between atoms: C_8  and  N_10 
REMARK    5  A    between atoms: N_10  and  CA_11 
REMARK    6  A    between atoms: CA_11  and  C_12 
REMARK       I    between atoms: C_12  and  N_14 
REMARK    7  A    between atoms: N_14  and  CA_15 
REMARK    8  A    between atoms: CA_15  and  C_20 
REMARK    9  A    between atoms: CA_15  and  CB_16 
REMARK   10  A    between atoms: CB_16  and  CG_17 
REMARK       I    between atoms: C_20  and  N_22 
REMARK   11  A    between atoms: N_22  and  CA_23 
REMARK   12  A    between atoms: CA_23  and  CB_24 
REMARK   13  A    between atoms: CA_23  and  C_28 
REMARK   14  A    between atoms: CB_24  and  CG_25 
REMARK       I    between atoms: C_28  and  N_30 
REMARK   15  A    between atoms: N_30  and  CA_31 
REMARK   16  A    between atoms: CA_31  and  CB_32 
REMARK   17  A    between atoms: CA_31  and  C_39 
REMARK   18  A    between atoms: CB_32  and  CG_33 
REMARK   19  A    between atoms: CG_33  and  CD_34 
REMARK   20  A    between atoms: CD_34  and  NE_35 
REMARK       I    between atoms: C_39  and  N_41 
REMARK   21  A    between atoms: CA_42  and  C_46 
REMARK       I    between atoms: C_46  and  N_48 
REMARK   22  A    between atoms: N_48  and  CA_49 
REMARK   23  A    between atoms: CA_49  and  C_52 
REMARK   24  A    between atoms: CA_49  and  CB_50 
REMARK       I    between atoms: C_52  and  N_54 
REMARK   25  A    between atoms: N_54  and  CA_55 
REMARK   26  A    between atoms: CA_55  and  C_56 
REMARK       I    between atoms: C_56  and  N_58 
REMARK   27  A    between atoms: N_58  and  CA_59 
REMARK   28  A    between atoms: CA_59  and  C_60 
REMARK       I    between atoms: C_60  and  N_62 
REMARK   29  A    between atoms: N_62  and  CA_63 
REMARK   30  A    between atoms: CA_63  and  CB_64 
REMARK   31  A    between atoms: CA_63  and  C_66 
REMARK       I    between atoms: C_66  and  N_68 
REMARK   32  A    between atoms: N_68  and  CA_69 
REMARK   33  A    between atoms: CA_69  and  C_70 
ROOT
ATOM      1  CA  ARG     5      -4.090   7.717   6.708  1.00  0.00     0.185 C 
ENDROOT
BRANCH   1   2
ATOM      2  N   ARG     5      -4.004   8.417   5.413  1.00  0.00    -0.229 NA
ATOM      3  C   ASN     4      -3.122   9.353   5.099  1.00  0.00     0.275 C 
ATOM      4  O   ASN     4      -2.422   9.943   5.916  1.00  0.00    -0.268 OA
BRANCH   3   5
ATOM      5  CA  ASN     4      -3.294   9.874   3.657  1.00  0.00     0.196 C 
BRANCH   5   6
ATOM      6  N   ASN     4      -3.111  11.340   3.605  1.00  0.00    -0.228 NA
ATOM      7  C   LEU     3      -3.832  12.137   2.821  1.00  0.00     0.274 C 
ATOM      8  O   LEU     3      -4.729  11.759   2.061  1.00  0.00    -0.268 OA
BRANCH   7   9
ATOM      9  CA  LEU     3      -3.522  13.627   2.958  1.00  0.00     0.186 C 
BRANCH   9  10
ATOM     10  N   LEU     3      -2.227  13.926   2.307  1.00  0.00    -0.229 NA
ATOM     11  C   GLY     2      -1.406  14.889   2.735  1.00  0.00     0.277 C 
ATOM     12  O   GLY     2      -1.574  15.497   3.781  1.00  0.00    -0.268 OA
BRANCH  11  13
ATOM     13  CA  GLY     2      -0.114  15.090   1.915  1.00  0.00     0.218 C 
BRANCH  13  14
ATOM     14  N   GLY     2       1.091  15.590   2.621  1.00  0.00    -0.226 NA
ATOM     15  C   GLU     1       1.881  16.533   2.095  1.00  0.00     0.289 C 
ATOM     16  O   GLU     1       1.554  17.140   1.089  1.00  0.00    -0.268 OA
BRANCH  15  17
ATOM     17  CA  GLU     1       3.191  16.908   2.838  1.00  0.00     0.381 C 
ATOM     18  N   GLU     1       2.997  17.200   4.269  1.00  0.00     0.626 N 
BRANCH  17  19
ATOM     19  CB  GLU     1       4.215  15.772   2.632  1.00  0.00     0.060 C 
BRANCH  19  20
ATOM     20  CG  GLU     1       4.318  15.090   1.259  1.00  0.00     0.100 C 
BRANCH  20  21
ATOM     21  CD  GLU     1       5.377  13.978   1.225  1.00  0.00     0.185 C 
ATOM     22  OE1 GLU     1       4.996  12.803   1.077  1.00  0.00    -0.647 OA
ATOM     23  OE2 GLU     1       6.571  14.293   1.377  1.00  0.00    -0.647 OA
ENDBRANCH  20  21
ENDBRANCH  19  20
ENDBRANCH  17  19
ENDBRANCH  15  17
ENDBRANCH  13  14
ENDBRANCH  11  13
ENDBRANCH   9  10
BRANCH   9  24
ATOM     24  CB  LEU     3      -4.652  14.428   2.300  1.00  0.00     0.034 C 
BRANCH  24  25
ATOM     25  CG  LEU     3      -4.299  14.969   0.903  1.00  0.00     0.002 C 
ATOM     26  CD1 LEU     3      -5.324  14.468  -0.112  1.00  0.00     0.000 C 
ATOM     27  CD2 LEU     3      -4.259  16.501   0.895  1.00  0.00     0.000 C 
ENDBRANCH  24  25
ENDBRANCH   9  24
ENDBRANCH   7   9
ENDBRANCH   5   6
BRANCH   5  28
ATOM     28  CB  ASN     4      -2.320   9.182   2.688  1.00  0.00     0.126 C 
BRANCH  28  29
ATOM     29  CG  ASN     4      -2.688   7.718   2.379  1.00  0.00     0.276 C 
ATOM     30  ND2 ASN     4      -3.170   7.480   1.188  1.00  0.00    -0.107 N 
ATOM     31  OD1 ASN     4      -2.496   6.794   3.145  1.00  0.00    -0.269 OA
ENDBRANCH  28  29
ENDBRANCH   5  28
ENDBRANCH   3   5
ENDBRANCH   1   2
BRANCH   1  32
ATOM     32  CB  ARG     5      -5.094   8.415   7.631  1.00  0.00     0.036 C 
BRANCH  32  33
ATOM     33  CG  ARG     5      -4.447   9.345   8.658  1.00  0.00     0.029 C 
BRANCH  33  34
ATOM     34  CD  ARG     5      -5.242  10.644   8.740  1.00  0.00     0.145 C 
BRANCH  34  35
ATOM     35  NE  ARG     5      -4.614  11.730   7.949  1.00  0.00    -0.083 NA
ATOM     36  CZ  ARG     5      -5.037  12.143   6.745  1.00  0.00     0.782 C 
ATOM     37  NH2 ARG     5      -4.578  13.282   6.202  1.00  0.00     0.063 N 
ATOM     38  NH1 ARG     5      -6.011  11.514   6.103  1.00  0.00     0.063 N 
ENDBRANCH  34  35
ENDBRANCH  33  34
ENDBRANCH  32  33
ENDBRANCH   1  32
BRANCH   1  39
ATOM     39  C   ARG     5      -4.530   6.259   6.477  1.00  0.00     0.256 C 
ATOM     40  O   ARG     5      -5.492   6.018   5.741  1.00  0.00    -0.270 OA
ATOM     41  N   PRO     6      -3.771   5.299   7.015  1.00  0.00    -0.312 N 
ATOM     42  CA  PRO     6      -4.068   3.852   6.919  1.00  0.00     0.165 C 
ATOM     43  CD  PRO     6      -2.448   5.503   7.644  1.00  0.00     0.105 C 
ATOM     44  CB  PRO     6      -2.989   3.174   7.764  1.00  0.00     0.034 C 
ATOM     45  CG  PRO     6      -1.803   4.117   7.623  1.00  0.00     0.027 C 
BRANCH  42  46
ATOM     46  C   PRO     6      -5.471   3.531   7.460  1.00  0.00     0.272 C 
ATOM     47  N   SER     7      -6.352   2.931   6.671  1.00  0.00    -0.226 NA
ATOM     48  O   PRO     6      -5.806   3.924   8.582  1.00  0.00    -0.269 OA
BRANCH  47  49
ATOM     49  CA  SER     7      -6.145   2.520   5.261  1.00  0.00     0.219 C 
BRANCH  49  50
ATOM     50  C   SER     7      -7.391   2.780   4.397  1.00  0.00     0.277 C 
ATOM     51  O   SER     7      -7.443   3.792   3.706  1.00  0.00    -0.268 OA
ATOM     52  N   GLY     8      -8.233   1.763   4.278  1.00  0.00    -0.226 NA
BRANCH  52  53
ATOM     53  CA  GLY     8      -9.575   1.920   3.656  1.00  0.00     0.218 C 
BRANCH  53  54
ATOM     54  C   GLY     8     -10.527   0.710   3.668  1.00  0.00     0.277 C 
ATOM     55  N   GLY     9     -11.548   0.727   2.799  1.00  0.00    -0.226 NA
ATOM     56  O   GLY     8     -10.313  -0.231   4.414  1.00  0.00    -0.268 OA
BRANCH  55  57
ATOM     57  CA  GLY     9     -12.561  -0.346   2.726  1.00  0.00     0.218 C 
BRANCH  57  58
ATOM     58  C   GLY     9     -12.060  -1.541   1.880  1.00  0.00     0.277 C 
ATOM     59  O   GLY     9     -11.887  -1.393   0.677  1.00  0.00    -0.268 OA
ATOM     60  N   CYS    10     -11.969  -2.764   2.383  1.00  0.00    -0.228 NA
BRANCH  60  61
ATOM     61  CA  CYS    10     -12.339  -3.219   3.745  1.00  0.00     0.198 C 
BRANCH  61  62
ATOM     62  CB  CYS    10     -13.396  -4.329   3.723  1.00  0.00     0.103 C 
ATOM     63  SG  CYS    10     -13.807  -5.089   2.115  1.00  0.00    -0.080 SA
ENDBRANCH  61  62
BRANCH  61  64
ATOM     64  C   CYS    10     -11.176  -3.816   4.541  1.00  0.00     0.275 C 
ATOM     65  O   CYS    10     -11.414  -4.621   5.439  1.00  0.00    -0.268 OA
ATOM     66  N   GLY    11      -9.994  -3.642   3.973  1.00  0.00    -0.225 NA
BRANCH  66  67
ATOM     67  CA  GLY    11      -8.775  -3.465   4.774  1.00  0.00     0.226 C 
BRANCH  67  68
ATOM     68  C   GLY    11      -7.628  -3.466   3.751  1.00  0.00     0.211 C 
ATOM     69  O2  GLY    11      -6.843  -4.436   3.822  1.00  0.00    -0.646 OA
ATOM     70  O1  GLY    11      -7.789  -2.743   2.741  1.00  0.00    -0.646 OA
ENDBRANCH  67  68
ENDBRANCH  66  67
ENDBRANCH  61  64
ENDBRANCH  60  61
ENDBRANCH  57  58
ENDBRANCH  55  57
ENDBRANCH  53  54
ENDBRANCH  52  53
ENDBRANCH  49  50
BRANCH  49  71
ATOM     71  CB  SER     7      -5.815   1.030   5.149  1.00  0.00     0.216 C 
ATOM     72  OG  SER     7      -5.013   0.795   3.991  1.00  0.00    -0.218 OA
ENDBRANCH  49  71
ENDBRANCH  47  49
ENDBRANCH  42  46
ENDBRANCH   1  39
TORSDOF 33
ENDMDL
MODEL 2
REMARK VINA RESULT:      -5.8      4.082     10.441
REMARK WARNING: 32 MAX_TORS EXCEEDED!!!
REMARK  33 active torsions:
REMARK  status: ('A' for Active; 'I' for Inactive)
REMARK    1  A    between atoms: CA_2  and  C_8 
REMARK    2  A    between atoms: CA_2  and  CB_3 
REMARK    3  A    between atoms: CB_3  and  CG_4 
REMARK    4  A    between atoms: CG_4  and  CD_5 
REMARK       I    between atoms: C_8  and  N_10 
REMARK    5  A    between atoms: N_10  and  CA_11 
REMARK    6  A    between atoms: CA_11  and  C_12 
REMARK       I    between atoms: C_12  and  N_14 
REMARK    7  A    between atoms: N_14  and  CA_15 
REMARK    8  A    between atoms: CA_15  and  C_20 
REMARK    9  A    between atoms: CA_15  and  CB_16 
REMARK   10  A    between atoms: CB_16  and  CG_17 
REMARK       I    between atoms: C_20  and  N_22 
REMARK   11  A    between atoms: N_22  and  CA_23 
REMARK   12  A    between atoms: CA_23  and  CB_24 
REMARK   13  A    between atoms: CA_23  and  C_28 
REMARK   14  A    between atoms: CB_24  and  CG_25 
REMARK       I    between atoms: C_28  and  N_30 
REMARK   15  A    between atoms: N_30  and  CA_31 
REMARK   16  A    between atoms: CA_31  and  CB_32 
REMARK   17  A    between atoms: CA_31  and  C_39 
REMARK   18  A    between atoms: CB_32  and  CG_33 
REMARK   19  A    between atoms: CG_33  and  CD_34 
REMARK   20  A    between atoms: CD_34  and  NE_35 
REMARK       I    between atoms: C_39  and  N_41 
REMARK   21  A    between atoms: CA_42  and  C_46 
REMARK       I    between atoms: C_46  and  N_48 
REMARK   22  A    between atoms: N_48  and  CA_49 
REMARK   23  A    between atoms: CA_49  and  C_52 
REMARK   24  A    between atoms: CA_49  and  CB_50 
REMARK       I    between atoms: C_52  and  N_54 
REMARK   25  A    between atoms: N_54  and  CA_55 
REMARK   26  A    between atoms: CA_55  and  C_56 
REMARK       I    between atoms: C_56  and  N_58 
REMARK   27  A    between atoms: N_58  and  CA_59 
REMARK   28  A    between atoms: CA_59  and  C_60 
REMARK       I    between atoms: C_60  and  N_62 
REMARK   29  A    between atoms: N_62  and  CA_63 
REMARK   30  A    between atoms: CA_63  and  CB_64 
REMARK   31  A    between atoms: CA_63  and  C_66 
REMARK       I    between atoms: C_66  and  N_68 
REMARK   32  A    between atoms: N_68  and  CA_69 
REMARK   33  A    between atoms: CA_69  and  C_70 
ROOT
ATOM      1  CA  ARG     5      -7.667  -1.266   3.327  1.00  0.00     0.185 C 
ENDROOT
BRANCH   1   2
ATOM      2  N   ARG     5      -7.483  -0.154   4.278  1.00  0.00    -0.229 NA
ATOM      3  C   ASN     4      -6.355   0.509   4.480  1.00  0.00     0.275 C 
ATOM      4  O   ASN     4      -5.253   0.130   4.095  1.00  0.00    -0.268 OA
BRANCH   3   5
ATOM      5  CA  ASN     4      -6.502   1.626   5.534  1.00  0.00     0.196 C 
BRANCH   5   6
ATOM      6  N   ASN     4      -5.338   2.537   5.496  1.00  0.00    -0.228 NA
ATOM      7  C   LEU     3      -4.808   3.088   6.585  1.00  0.00     0.274 C 
ATOM      8  O   LEU     3      -5.210   2.905   7.738  1.00  0.00    -0.268 OA
BRANCH   7   9
ATOM      9  CA  LEU     3      -3.576   3.956   6.333  1.00  0.00     0.186 C 
BRANCH   9  10
ATOM     10  N   LEU     3      -3.869   4.934   5.262  1.00  0.00    -0.229 NA
ATOM     11  C   GLY     2      -4.815   5.871   5.374  1.00  0.00     0.277 C 
ATOM     12  O   GLY     2      -5.409   6.101   6.417  1.00  0.00    -0.268 OA
BRANCH  11  13
ATOM     13  CA  GLY     2      -5.013   6.784   4.146  1.00  0.00     0.218 C 
BRANCH  13  14
ATOM     14  N   GLY     2      -4.025   7.866   3.914  1.00  0.00    -0.226 NA
ATOM     15  C   GLU     1      -4.238   9.122   4.324  1.00  0.00     0.289 C 
ATOM     16  O   GLU     1      -5.178   9.395   5.053  1.00  0.00    -0.268 OA
BRANCH  15  17
ATOM     17  CA  GLU     1      -3.215  10.220   3.929  1.00  0.00     0.381 C 
ATOM     18  N   GLU     1      -1.939   9.685   3.422  1.00  0.00     0.626 N 
BRANCH  17  19
ATOM     19  CB  GLU     1      -3.877  11.160   2.901  1.00  0.00     0.060 C 
BRANCH  19  20
ATOM     20  CG  GLU     1      -3.795  10.818   1.405  1.00  0.00     0.100 C 
BRANCH  20  21
ATOM     21  CD  GLU     1      -3.149  11.935   0.573  1.00  0.00     0.185 C 
ATOM     22  OE1 GLU     1      -1.910  11.943   0.455  1.00  0.00    -0.647 OA
ATOM     23  OE2 GLU     1      -3.885  12.805   0.077  1.00  0.00    -0.647 OA
ENDBRANCH  20  21
ENDBRANCH  19  20
ENDBRANCH  17  19
ENDBRANCH  15  17
ENDBRANCH  13  14
ENDBRANCH  11  13
ENDBRANCH   9  10
BRANCH   9  24
ATOM     24  CB  LEU     3      -3.207   4.679   7.634  1.00  0.00     0.034 C 
BRANCH  24  25
ATOM     25  CG  LEU     3      -1.897   4.182   8.272  1.00  0.00     0.002 C 
ATOM     26  CD1 LEU     3      -1.646   2.734   7.856  1.00  0.00     0.000 C 
ATOM     27  CD2 LEU     3      -0.711   5.060   7.858  1.00  0.00     0.000 C 
ENDBRANCH  24  25
ENDBRANCH   9  24
ENDBRANCH   7   9
ENDBRANCH   5   6
BRANCH   5  28
ATOM     28  CB  ASN     4      -7.804   2.420   5.335  1.00  0.00     0.126 C 
BRANCH  28  29
ATOM     29  CG  ASN     4      -8.734   2.402   6.564  1.00  0.00     0.276 C 
ATOM     30  ND2 ASN     4      -9.941   2.868   6.385  1.00  0.00    -0.107 N 
ATOM     31  OD1 ASN     4      -8.425   1.929   7.642  1.00  0.00    -0.269 OA
ENDBRANCH  28  29
ENDBRANCH   5  28
ENDBRANCH   3   5
ENDBRANCH   1   2
BRANCH   1  32
ATOM     32  CB  ARG     5      -7.652  -2.611   4.063  1.00  0.00     0.036 C 
BRANCH  32  33
ATOM     33  CG  ARG     5      -7.603  -3.825   3.134  1.00  0.00     0.029 C 
BRANCH  33  34
ATOM     34  CD  ARG     5      -8.548  -4.902   3.657  1.00  0.00     0.145 C 
BRANCH  34  35
ATOM     35  NE  ARG     5      -9.901  -4.791   3.059  1.00  0.00    -0.083 NA
ATOM     36  CZ  ARG     5     -10.974  -4.284   3.682  1.00  0.00     0.782 C 
ATOM     37  NH2 ARG     5     -12.096  -3.990   3.004  1.00  0.00     0.063 N 
ATOM     38  NH1 ARG     5     -10.929  -3.936   4.960  1.00  0.00     0.063 N 
ENDBRANCH  34  35
ENDBRANCH  33  34
ENDBRANCH  32  33
ENDBRANCH   1  32
BRANCH   1  39
ATOM     39  C   ARG     5      -9.009  -1.097   2.590  1.00  0.00     0.256 C 
ATOM     40  O   ARG     5      -9.111  -1.458   1.414  1.00  0.00    -0.270 OA
ATOM     41  N   PRO     6     -10.046  -0.652   3.305  1.00  0.00    -0.312 N 
ATOM     42  CA  PRO     6     -11.394  -0.401   2.747  1.00  0.00     0.165 C 
ATOM     43  CD  PRO     6     -10.070  -0.494   4.776  1.00  0.00     0.105 C 
ATOM     44  CB  PRO     6     -12.196   0.186   3.909  1.00  0.00     0.034 C 
ATOM     45  CG  PRO     6     -11.558  -0.465   5.128  1.00  0.00     0.027 C 
BRANCH  42  46
ATOM     46  C   PRO     6     -11.338   0.582   1.566  1.00  0.00     0.272 C 
ATOM     47  N   SER     7     -11.978   0.288   0.443  1.00  0.00    -0.226 NA
ATOM     48  O   PRO     6     -10.616   1.582   1.629  1.00  0.00    -0.269 OA
BRANCH  47  49
ATOM     49  CA  SER     7     -12.771  -0.934   0.167  1.00  0.00     0.219 C 
BRANCH  49  50
ATOM     50  C   SER     7     -11.972  -1.969  -0.643  1.00  0.00     0.277 C 
ATOM     51  O   SER     7     -11.004  -1.600  -1.300  1.00  0.00    -0.268 OA
ATOM     52  N   GLY     8     -12.247  -3.241  -0.386  1.00  0.00    -0.226 NA
BRANCH  52  53
ATOM     53  CA  GLY     8     -11.717  -4.347  -1.227  1.00  0.00     0.218 C 
BRANCH  53  54
ATOM     54  C   GLY     8     -12.601  -5.589  -1.434  1.00  0.00     0.277 C 
ATOM     55  N   GLY     9     -12.157  -6.748  -0.927  1.00  0.00    -0.226 NA
ATOM     56  O   GLY     8     -13.677  -5.489  -2.000  1.00  0.00    -0.268 OA
BRANCH  55  57
ATOM     57  CA  GLY     9     -12.880  -8.027  -1.083  1.00  0.00     0.218 C 
BRANCH  57  58
ATOM     58  C   GLY     9     -11.992  -9.231  -0.691  1.00  0.00     0.277 C 
ATOM     59  O   GLY     9     -10.907  -9.380  -1.240  1.00  0.00    -0.268 OA
ATOM     60  N   CYS    10     -12.436 -10.200   0.097  1.00  0.00    -0.228 NA
BRANCH  60  61
ATOM     61  CA  CYS    10     -13.787 -10.345   0.692  1.00  0.00     0.198 C 
BRANCH  61  62
ATOM     62  CB  CYS    10     -14.510 -11.604   0.200  1.00  0.00     0.103 C 
ATOM     63  SG  CYS    10     -13.906 -12.396  -1.329  1.00  0.00    -0.080 SA
ENDBRANCH  61  62
BRANCH  61  64
ATOM     64  C   CYS    10     -13.787 -10.475   2.216  1.00  0.00     0.275 C 
ATOM     65  O   CYS    10     -14.062  -9.493   2.903  1.00  0.00    -0.268 OA
ATOM     66  N   GLY    11     -13.796 -11.726   2.646  1.00  0.00    -0.225 NA
BRANCH  66  67
ATOM     67  CA  GLY    11     -13.121 -12.116   3.892  1.00  0.00     0.226 C 
BRANCH  67  68
ATOM     68  C   GLY    11     -11.689 -12.477   3.466  1.00  0.00     0.211 C 
ATOM     69  O2  GLY    11     -10.850 -11.556   3.565  1.00  0.00    -0.646 OA
ATOM     70  O1  GLY    11     -11.415 -13.698   3.427  1.00  0.00    -0.646 OA
ENDBRANCH  67  68
ENDBRANCH  66  67
ENDBRANCH  61  64
ENDBRANCH  60  61
ENDBRANCH  57  58
ENDBRANCH  55  57
ENDBRANCH  53  54
ENDBRANCH  52  53
ENDBRANCH  49  50
BRANCH  49  71
ATOM     71  CB  SER     7     -14.041  -0.617  -0.625  1.00  0.00     0.216 C 
ATOM     72  OG  SER     7     -15.143  -1.353  -0.093  1.00  0.00    -0.218 OA
ENDBRANCH  49  71
ENDBRANCH  47  49
ENDBRANCH  42  46
ENDBRANCH   1  39
TORSDOF 33
ENDMDL
MODEL 3
REMARK VINA RESULT:      -5.8      2.904      4.767
REMARK WARNING: 32 MAX_TORS EXCEEDED!!!
REMARK  33 active torsions:
REMARK  status: ('A' for Active; 'I' for Inactive)
REMARK    1  A    between atoms: CA_2  and  C_8 
REMARK    2  A    between atoms: CA_2  and  CB_3 
REMARK    3  A    between atoms: CB_3  and  CG_4 
REMARK    4  A    between atoms: CG_4  and  CD_5 
REMARK       I    between atoms: C_8  and  N_10 
REMARK    5  A    between atoms: N_10  and  CA_11 
REMARK    6  A    between atoms: CA_11  and  C_12 
REMARK       I    between atoms: C_12  and  N_14 
REMARK    7  A    between atoms: N_14  and  CA_15 
REMARK    8  A    between atoms: CA_15  and  C_20 
REMARK    9  A    between atoms: CA_15  and  CB_16 
REMARK   10  A    between atoms: CB_16  and  CG_17 
REMARK       I    between atoms: C_20  and  N_22 
REMARK   11  A    between atoms: N_22  and  CA_23 
REMARK   12  A    between atoms: CA_23  and  CB_24 
REMARK   13  A    between atoms: CA_23  and  C_28 
REMARK   14  A    between atoms: CB_24  and  CG_25 
REMARK       I    between atoms: C_28  and  N_30 
REMARK   15  A    between atoms: N_30  and  CA_31 
REMARK   16  A    between atoms: CA_31  and  CB_32 
REMARK   17  A    between atoms: CA_31  and  C_39 
REMARK   18  A    between atoms: CB_32  and  CG_33 
REMARK   19  A    between atoms: CG_33  and  CD_34 
REMARK   20  A    between atoms: CD_34  and  NE_35 
REMARK       I    between atoms: C_39  and  N_41 
REMARK   21  A    between atoms: CA_42  and  C_46 
REMARK       I    between atoms: C_46  and  N_48 
REMARK   22  A    between atoms: N_48  and  CA_49 
REMARK   23  A    between atoms: CA_49  and  C_52 
REMARK   24  A    between atoms: CA_49  and  CB_50 
REMARK       I    between atoms: C_52  and  N_54 
REMARK   25  A    between atoms: N_54  and  CA_55 
REMARK   26  A    between atoms: CA_55  and  C_56 
REMARK       I    between atoms: C_56  and  N_58 
REMARK   27  A    between atoms: N_58  and  CA_59 
REMARK   28  A    between atoms: CA_59  and  C_60 
REMARK       I    between atoms: C_60  and  N_62 
REMARK   29  A    between atoms: N_62  and  CA_63 
REMARK   30  A    between atoms: CA_63  and  CB_64 
REMARK   31  A    between atoms: CA_63  and  C_66 
REMARK       I    between atoms: C_66  and  N_68 
REMARK   32  A    between atoms: N_68  and  CA_69 
REMARK   33  A    between atoms: CA_69  and  C_70 
ROOT
ATOM      1  CA  ARG     5      -4.216   7.732   6.912  1.00  0.00     0.185 C 
ENDROOT
BRANCH   1   2
ATOM      2  N   ARG     5      -4.052   8.440   5.630  1.00  0.00    -0.229 NA
ATOM      3  C   ASN     4      -3.295   9.508   5.429  1.00  0.00     0.275 C 
ATOM      4  O   ASN     4      -2.829  10.201   6.328  1.00  0.00    -0.268 OA
BRANCH   3   5
ATOM      5  CA  ASN     4      -3.332   9.998   3.967  1.00  0.00     0.196 C 
BRANCH   5   6
ATOM      6  N   ASN     4      -3.184  11.467   3.904  1.00  0.00    -0.228 NA
ATOM      7  C   LEU     3      -3.690  12.210   2.923  1.00  0.00     0.274 C 
ATOM      8  O   LEU     3      -4.340  11.773   1.968  1.00  0.00    -0.268 OA
BRANCH   7   9
ATOM      9  CA  LEU     3      -3.471  13.715   3.075  1.00  0.00     0.186 C 
BRANCH   9  10
ATOM     10  N   LEU     3      -3.740  14.387   1.785  1.00  0.00    -0.229 NA
ATOM     11  C   GLY     2      -2.783  14.976   1.061  1.00  0.00     0.277 C 
ATOM     12  O   GLY     2      -1.593  14.877   1.318  1.00  0.00    -0.268 OA
BRANCH  11  13
ATOM     13  CA  GLY     2      -3.246  15.663  -0.242  1.00  0.00     0.218 C 
BRANCH  13  14
ATOM     14  N   GLY     2      -4.541  15.244  -0.830  1.00  0.00    -0.226 NA
ATOM     15  C   GLU     1      -5.655  15.971  -0.685  1.00  0.00     0.289 C 
ATOM     16  O   GLU     1      -5.618  17.092  -0.206  1.00  0.00    -0.268 OA
BRANCH  15  17
ATOM     17  CA  GLU     1      -6.994  15.399  -1.221  1.00  0.00     0.381 C 
ATOM     18  N   GLU     1      -7.154  15.533  -2.680  1.00  0.00     0.626 N 
BRANCH  17  19
ATOM     19  CB  GLU     1      -7.112  13.926  -0.778  1.00  0.00     0.060 C 
BRANCH  19  20
ATOM     20  CG  GLU     1      -8.225  13.520   0.200  1.00  0.00     0.100 C 
BRANCH  20  21
ATOM     21  CD  GLU     1      -7.986  14.043   1.624  1.00  0.00     0.185 C 
ATOM     22  OE1 GLU     1      -7.162  13.447   2.342  1.00  0.00    -0.647 OA
ATOM     23  OE2 GLU     1      -8.647  15.021   2.015  1.00  0.00    -0.647 OA
ENDBRANCH  20  21
ENDBRANCH  19  20
ENDBRANCH  17  19
ENDBRANCH  15  17
ENDBRANCH  13  14
ENDBRANCH  11  13
ENDBRANCH   9  10
BRANCH   9  24
ATOM     24  CB  LEU     3      -4.414  14.243   4.163  1.00  0.00     0.034 C 
BRANCH  24  25
ATOM     25  CG  LEU     3      -3.915  15.527   4.849  1.00  0.00     0.002 C 
ATOM     26  CD1 LEU     3      -2.389  15.569   4.803  1.00  0.00     0.000 C 
ATOM     27  CD2 LEU     3      -4.494  16.776   4.175  1.00  0.00     0.000 C 
ENDBRANCH  24  25
ENDBRANCH   9  24
ENDBRANCH   7   9
ENDBRANCH   5   6
BRANCH   5  28
ATOM     28  CB  ASN     4      -2.245   9.318   3.117  1.00  0.00     0.126 C 
BRANCH  28  29
ATOM     29  CG  ASN     4      -2.685   7.970   2.513  1.00  0.00     0.276 C 
ATOM     30  ND2 ASN     4      -3.324   8.026   1.375  1.00  0.00    -0.107 N 
ATOM     31  OD1 ASN     4      -2.415   6.888   2.999  1.00  0.00    -0.269 OA
ENDBRANCH  28  29
ENDBRANCH   5  28
ENDBRANCH   3   5
ENDBRANCH   1   2
BRANCH   1  32
ATOM     32  CB  ARG     5      -5.309   8.396   7.757  1.00  0.00     0.036 C 
BRANCH  32  33
ATOM     33  CG  ARG     5      -4.770   9.234   8.918  1.00  0.00     0.029 C 
BRANCH  33  34
ATOM     34  CD  ARG     5      -5.260  10.671   8.776  1.00  0.00     0.145 C 
BRANCH  34  35
ATOM     35  NE  ARG     5      -6.151  10.841   7.602  1.00  0.00    -0.083 NA
ATOM     36  CZ  ARG     5      -6.273  11.972   6.892  1.00  0.00     0.782 C 
ATOM     37  NH2 ARG     5      -6.903  11.982   5.705  1.00  0.00     0.063 N 
ATOM     38  NH1 ARG     5      -5.672  13.092   7.268  1.00  0.00     0.063 N 
ENDBRANCH  34  35
ENDBRANCH  33  34
ENDBRANCH  32  33
ENDBRANCH   1  32
BRANCH   1  39
ATOM     39  C   ARG     5      -4.593   6.263   6.645  1.00  0.00     0.256 C 
ATOM     40  O   ARG     5      -5.569   6.000   5.935  1.00  0.00    -0.270 OA
ATOM     41  N   PRO     6      -3.770   5.324   7.121  1.00  0.00    -0.312 N 
ATOM     42  CA  PRO     6      -4.000   3.868   6.984  1.00  0.00     0.165 C 
ATOM     43  CD  PRO     6      -2.436   5.572   7.711  1.00  0.00     0.105 C 
ATOM     44  CB  PRO     6      -2.859   3.216   7.766  1.00  0.00     0.034 C 
ATOM     45  CG  PRO     6      -1.726   4.221   7.618  1.00  0.00     0.027 C 
BRANCH  42  46
ATOM     46  C   PRO     6      -5.365   3.459   7.562  1.00  0.00     0.272 C 
ATOM     47  N   SER     7      -6.240   2.835   6.785  1.00  0.00    -0.226 NA
ATOM     48  O   PRO     6      -5.681   3.805   8.704  1.00  0.00    -0.269 OA
BRANCH  47  49
ATOM     49  CA  SER     7      -6.061   2.474   5.358  1.00  0.00     0.219 C 
BRANCH  49  50
ATOM     50  C   SER     7      -7.356   2.663   4.549  1.00  0.00     0.277 C 
ATOM     51  O   SER     7      -7.416   3.559   3.714  1.00  0.00    -0.268 OA
ATOM     52  N   GLY     8      -8.246   1.685   4.648  1.00  0.00    -0.226 NA
BRANCH  52  53
ATOM     53  CA  GLY     8      -9.623   1.815   4.101  1.00  0.00     0.218 C 
BRANCH  53  54
ATOM     54  C   GLY     8     -10.079   0.805   3.034  1.00  0.00     0.277 C 
ATOM     55  N   GLY     9      -9.432  -0.369   2.985  1.00  0.00    -0.226 NA
ATOM     56  O   GLY     8     -11.021   1.067   2.304  1.00  0.00    -0.268 OA
BRANCH  55  57
ATOM     57  CA  GLY     9      -9.735  -1.417   1.990  1.00  0.00     0.218 C 
BRANCH  57  58
ATOM     58  C   GLY     9     -10.839  -2.375   2.495  1.00  0.00     0.277 C 
ATOM     59  O   GLY     9     -11.960  -2.312   2.005  1.00  0.00    -0.268 OA
ATOM     60  N   CYS    10     -10.661  -3.149   3.556  1.00  0.00    -0.228 NA
BRANCH  60  61
ATOM     61  CA  CYS    10      -9.471  -3.226   4.439  1.00  0.00     0.198 C 
BRANCH  61  62
ATOM     62  CB  CYS    10      -9.848  -3.277   5.925  1.00  0.00     0.103 C 
ATOM     63  SG  CYS    10     -10.203  -1.700   6.772  1.00  0.00    -0.080 SA
ENDBRANCH  61  62
BRANCH  61  64
ATOM     64  C   CYS    10      -8.610  -4.472   4.221  1.00  0.00     0.275 C 
ATOM     65  O   CYS    10      -7.909  -4.549   3.213  1.00  0.00    -0.268 OA
ATOM     66  N   GLY    11      -8.464  -5.218   5.304  1.00  0.00    -0.225 NA
BRANCH  66  67
ATOM     67  CA  GLY    11      -8.336  -6.679   5.219  1.00  0.00     0.226 C 
BRANCH  67  68
ATOM     68  C   GLY    11      -7.581  -7.082   6.496  1.00  0.00     0.211 C 
ATOM     69  O2  GLY    11      -7.060  -8.218   6.478  1.00  0.00    -0.646 OA
ATOM     70  O1  GLY    11      -7.240  -6.146   7.255  1.00  0.00    -0.646 OA
ENDBRANCH  67  68
ENDBRANCH  66  67
ENDBRANCH  61  64
ENDBRANCH  60  61
ENDBRANCH  57  58
ENDBRANCH  55  57
ENDBRANCH  53  54
ENDBRANCH  52  53
ENDBRANCH  49  50
BRANCH  49  71
ATOM     71  CB  SER     7      -5.630   1.014   5.195  1.00  0.00     0.216 C 
ATOM     72  OG  SER     7      -5.444   0.715   3.811  1.00  0.00    -0.218 OA
ENDBRANCH  49  71
ENDBRANCH  47  49
ENDBRANCH  42  46
ENDBRANCH   1  39
TORSDOF 33
ENDMDL
MODEL 4
REMARK VINA RESULT:      -5.8      4.502     15.644
REMARK WARNING: 32 MAX_TORS EXCEEDED!!!
REMARK  33 active torsions:
REMARK  status: ('A' for Active; 'I' for Inactive)
REMARK    1  A    between atoms: CA_2  and  C_8 
REMARK    2  A    between atoms: CA_2  and  CB_3 
REMARK    3  A    between atoms: CB_3  and  CG_4 
REMARK    4  A    between atoms: CG_4  and  CD_5 
REMARK       I    between atoms: C_8  and  N_10 
REMARK    5  A    between atoms: N_10  and  CA_11 
REMARK    6  A    between atoms: CA_11  and  C_12 
REMARK       I    between atoms: C_12  and  N_14 
REMARK    7  A    between atoms: N_14  and  CA_15 
REMARK    8  A    between atoms: CA_15  and  C_20 
REMARK    9  A    between atoms: CA_15  and  CB_16 
REMARK   10  A    between atoms: CB_16  and  CG_17 
REMARK       I    between atoms: C_20  and  N_22 
REMARK   11  A    between atoms: N_22  and  CA_23 
REMARK   12  A    between atoms: CA_23  and  CB_24 
REMARK   13  A    between atoms: CA_23  and  C_28 
REMARK   14  A    between atoms: CB_24  and  CG_25 
REMARK       I    between atoms: C_28  and  N_30 
REMARK   15  A    between atoms: N_30  and  CA_31 
REMARK   16  A    between atoms: CA_31  and  CB_32 
REMARK   17  A    between atoms: CA_31  and  C_39 
REMARK   18  A    between atoms: CB_32  and  CG_33 
REMARK   19  A    between atoms: CG_33  and  CD_34 
REMARK   20  A    between atoms: CD_34  and  NE_35 
REMARK       I    between atoms: C_39  and  N_41 
REMARK   21  A    between atoms: CA_42  and  C_46 
REMARK       I    between atoms: C_46  and  N_48 
REMARK   22  A    between atoms: N_48  and  CA_49 
REMARK   23  A    between atoms: CA_49  and  C_52 
REMARK   24  A    between atoms: CA_49  and  CB_50 
REMARK       I    between atoms: C_52  and  N_54 
REMARK   25  A    between atoms: N_54  and  CA_55 
REMARK   26  A    between atoms: CA_55  and  C_56 
REMARK       I    between atoms: C_56  and  N_58 
REMARK   27  A    between atoms: N_58  and  CA_59 
REMARK   28  A    between atoms: CA_59  and  C_60 
REMARK       I    between atoms: C_60  and  N_62 
REMARK   29  A    between atoms: N_62  and  CA_63 
REMARK   30  A    between atoms: CA_63  and  CB_64 
REMARK   31  A    between atoms: CA_63  and  C_66 
REMARK       I    between atoms: C_66  and  N_68 
REMARK   32  A    between atoms: N_68  and  CA_69 
REMARK   33  A    between atoms: CA_69  and  C_70 
ROOT
ATOM      1  CA  ARG     5      -9.270   1.360   3.906  1.00  0.00     0.185 C 
ENDROOT
BRANCH   1   2
ATOM      2  N   ARG     5      -9.055  -0.045   4.300  1.00  0.00    -0.229 NA
ATOM      3  C   ASN     4      -8.307  -0.923   3.651  1.00  0.00     0.275 C 
ATOM      4  O   ASN     4      -7.897  -0.766   2.505  1.00  0.00    -0.268 OA
BRANCH   3   5
ATOM      5  CA  ASN     4      -8.280  -2.305   4.336  1.00  0.00     0.196 C 
BRANCH   5   6
ATOM      6  N   ASN     4      -9.623  -2.923   4.316  1.00  0.00    -0.228 NA
ATOM      7  C   LEU     3     -10.337  -3.151   5.415  1.00  0.00     0.274 C 
ATOM      8  O   LEU     3      -9.977  -2.872   6.563  1.00  0.00    -0.268 OA
BRANCH   7   9
ATOM      9  CA  LEU     3     -11.722  -3.749   5.172  1.00  0.00     0.186 C 
BRANCH   9  10
ATOM     10  N   LEU     3     -12.272  -3.224   3.902  1.00  0.00    -0.229 NA
ATOM     11  C   GLY     2     -13.524  -2.773   3.785  1.00  0.00     0.277 C 
ATOM     12  O   GLY     2     -14.268  -2.608   4.741  1.00  0.00    -0.268 OA
BRANCH  11  13
ATOM     13  CA  GLY     2     -13.944  -2.297   2.379  1.00  0.00     0.218 C 
BRANCH  13  14
ATOM     14  N   GLY     2     -12.968  -1.509   1.587  1.00  0.00    -0.226 NA
ATOM     15  C   GLU     1     -12.219  -2.065   0.628  1.00  0.00     0.289 C 
ATOM     16  O   GLU     1     -12.425  -3.207   0.250  1.00  0.00    -0.268 OA
BRANCH  15  17
ATOM     17  CA  GLU     1     -11.131  -1.201  -0.064  1.00  0.00     0.381 C 
ATOM     18  N   GLU     1     -10.992  -1.469  -1.506  1.00  0.00     0.626 N 
BRANCH  17  19
ATOM     19  CB  GLU     1     -11.443   0.286   0.202  1.00  0.00     0.060 C 
BRANCH  19  20
ATOM     20  CG  GLU     1     -11.652   1.237  -0.986  1.00  0.00     0.100 C 
BRANCH  20  21
ATOM     21  CD  GLU     1     -11.255   2.686  -0.666  1.00  0.00     0.185 C 
ATOM     22  OE1 GLU     1     -11.713   3.595  -1.382  1.00  0.00    -0.647 OA
ATOM     23  OE2 GLU     1     -10.468   2.890   0.275  1.00  0.00    -0.647 OA
ENDBRANCH  20  21
ENDBRANCH  19  20
ENDBRANCH  17  19
ENDBRANCH  15  17
ENDBRANCH  13  14
ENDBRANCH  11  13
ENDBRANCH   9  10
BRANCH   9  24
ATOM     24  CB  LEU     3     -11.596  -5.276   5.112  1.00  0.00     0.034 C 
BRANCH  24  25
ATOM     25  CG  LEU     3     -12.803  -6.023   5.708  1.00  0.00     0.002 C 
ATOM     26  CD1 LEU     3     -12.385  -7.441   6.092  1.00  0.00     0.000 C 
ATOM     27  CD2 LEU     3     -13.360  -5.290   6.933  1.00  0.00     0.000 C 
ENDBRANCH  24  25
ENDBRANCH   9  24
ENDBRANCH   7   9
ENDBRANCH   5   6
BRANCH   5  28
ATOM     28  CB  ASN     4      -7.254  -3.241   3.676  1.00  0.00     0.126 C 
BRANCH  28  29
ATOM     29  CG  ASN     4      -7.631  -4.733   3.764  1.00  0.00     0.276 C 
ATOM     30  ND2 ASN     4      -7.535  -5.288   4.943  1.00  0.00    -0.107 N 
ATOM     31  OD1 ASN     4      -8.062  -5.380   2.828  1.00  0.00    -0.269 OA
ENDBRANCH  28  29
ENDBRANCH   5  28
ENDBRANCH   3   5
ENDBRANCH   1   2
BRANCH   1  32
ATOM     32  CB  ARG     5     -10.685   1.813   4.283  1.00  0.00     0.036 C 
BRANCH  32  33
ATOM     33  CG  ARG     5     -11.733   0.703   4.201  1.00  0.00     0.029 C 
BRANCH  33  34
ATOM     34  CD  ARG     5     -12.648   0.778   5.420  1.00  0.00     0.145 C 
BRANCH  34  35
ATOM     35  NE  ARG     5     -12.322  -0.265   6.423  1.00  0.00    -0.083 NA
ATOM     36  CZ  ARG     5     -13.165  -0.706   7.368  1.00  0.00     0.782 C 
ATOM     37  NH2 ARG     5     -12.893  -1.813   8.078  1.00  0.00     0.063 N 
ATOM     38  NH1 ARG     5     -14.351  -0.144   7.553  1.00  0.00     0.063 N 
ENDBRANCH  34  35
ENDBRANCH  33  34
ENDBRANCH  32  33
ENDBRANCH   1  32
BRANCH   1  39
ATOM     39  C   ARG     5      -8.236   2.257   4.611  1.00  0.00     0.256 C 
ATOM     40  O   ARG     5      -7.502   2.990   3.940  1.00  0.00    -0.270 OA
ATOM     41  N   PRO     6      -8.253   2.275   5.947  1.00  0.00    -0.312 N 
ATOM     42  CA  PRO     6      -7.309   3.053   6.780  1.00  0.00     0.165 C 
ATOM     43  CD  PRO     6      -9.295   1.664   6.800  1.00  0.00     0.105 C 
ATOM     44  CB  PRO     6      -7.655   2.676   8.221  1.00  0.00     0.034 C 
ATOM     45  CG  PRO     6      -9.144   2.374   8.146  1.00  0.00     0.027 C 
BRANCH  42  46
ATOM     46  C   PRO     6      -5.848   2.697   6.455  1.00  0.00     0.272 C 
ATOM     47  N   SER     7      -4.972   3.670   6.246  1.00  0.00    -0.226 NA
ATOM     48  O   PRO     6      -5.523   1.518   6.285  1.00  0.00    -0.269 OA
BRANCH  47  49
ATOM     49  CA  SER     7      -5.240   5.128   6.279  1.00  0.00     0.219 C 
BRANCH  49  50
ATOM     50  C   SER     7      -5.008   5.787   4.908  1.00  0.00     0.277 C 
ATOM     51  O   SER     7      -5.948   5.896   4.128  1.00  0.00    -0.268 OA
ATOM     52  N   GLY     8      -3.848   6.411   4.756  1.00  0.00    -0.226 NA
BRANCH  52  53
ATOM     53  CA  GLY     8      -3.390   6.911   3.433  1.00  0.00     0.218 C 
BRANCH  53  54
ATOM     54  C   GLY     8      -3.130   8.420   3.277  1.00  0.00     0.277 C 
ATOM     55  N   GLY     9      -3.329   8.953   2.063  1.00  0.00    -0.226 NA
ATOM     56  O   GLY     8      -2.800   9.088   4.243  1.00  0.00    -0.268 OA
BRANCH  55  57
ATOM     57  CA  GLY     9      -3.083  10.377   1.758  1.00  0.00     0.218 C 
BRANCH  57  58
ATOM     58  C   GLY     9      -4.399  11.191   1.751  1.00  0.00     0.277 C 
ATOM     59  O   GLY     9      -5.186  11.051   0.824  1.00  0.00    -0.268 OA
ATOM     60  N   CYS    10      -4.628  12.157   2.629  1.00  0.00    -0.228 NA
BRANCH  60  61
ATOM     61  CA  CYS    10      -3.724  12.652   3.696  1.00  0.00     0.198 C 
BRANCH  61  62
ATOM     62  CB  CYS    10      -3.193  14.061   3.406  1.00  0.00     0.103 C 
ATOM     63  SG  CYS    10      -4.318  15.249   2.597  1.00  0.00    -0.080 SA
ENDBRANCH  61  62
BRANCH  61  64
ATOM     64  C   CYS    10      -4.386  12.770   5.071  1.00  0.00     0.275 C 
ATOM     65  O   CYS    10      -3.938  13.573   5.887  1.00  0.00    -0.268 OA
ATOM     66  N   GLY    11      -5.584  12.212   5.137  1.00  0.00    -0.225 NA
BRANCH  66  67
ATOM     67  CA  GLY    11      -6.073  11.586   6.374  1.00  0.00     0.226 C 
BRANCH  67  68
ATOM     68  C   GLY    11      -5.277  10.277   6.493  1.00  0.00     0.211 C 
ATOM     69  O2  GLY    11      -4.632  10.133   7.554  1.00  0.00    -0.646 OA
ATOM     70  O1  GLY    11      -5.628   9.345   5.734  1.00  0.00    -0.646 OA
ENDBRANCH  67  68
ENDBRANCH  66  67
ENDBRANCH  61  64
ENDBRANCH  60  61
ENDBRANCH  57  58
ENDBRANCH  55  57
ENDBRANCH  53  54
ENDBRANCH  52  53
ENDBRANCH  49  50
BRANCH  49  71
ATOM     71  CB  SER     7      -4.340   5.845   7.288  1.00  0.00     0.216 C 
ATOM     72  OG  SER     7      -5.077   6.872   7.953  1.00  0.00    -0.218 OA
ENDBRANCH  49  71
ENDBRANCH  47  49
ENDBRANCH  42  46
ENDBRANCH   1  39
TORSDOF 33
ENDMDL
MODEL 5
REMARK VINA RESULT:      -5.8      4.618     10.593
REMARK WARNING: 32 MAX_TORS EXCEEDED!!!
REMARK  33 active torsions:
REMARK  status: ('A' for Active; 'I' for Inactive)
REMARK    1  A    between atoms: CA_2  and  C_8 
REMARK    2  A    between atoms: CA_2  and  CB_3 
REMARK    3  A    between atoms: CB_3  and  CG_4 
REMARK    4  A    between atoms: CG_4  and  CD_5 
REMARK       I    between atoms: C_8  and  N_10 
REMARK    5  A    between atoms: N_10  and  CA_11 
REMARK    6  A    between atoms: CA_11  and  C_12 
REMARK       I    between atoms: C_12  and  N_14 
REMARK    7  A    between atoms: N_14  and  CA_15 
REMARK    8  A    between atoms: CA_15  and  C_20 
REMARK    9  A    between atoms: CA_15  and  CB_16 
REMARK   10  A    between atoms: CB_16  and  CG_17 
REMARK       I    between atoms: C_20  and  N_22 
REMARK   11  A    between atoms: N_22  and  CA_23 
REMARK   12  A    between atoms: CA_23  and  CB_24 
REMARK   13  A    between atoms: CA_23  and  C_28 
REMARK   14  A    between atoms: CB_24  and  CG_25 
REMARK       I    between atoms: C_28  and  N_30 
REMARK   15  A    between atoms: N_30  and  CA_31 
REMARK   16  A    between atoms: CA_31  and  CB_32 
REMARK   17  A    between atoms: CA_31  and  C_39 
REMARK   18  A    between atoms: CB_32  and  CG_33 
REMARK   19  A    between atoms: CG_33  and  CD_34 
REMARK   20  A    between atoms: CD_34  and  NE_35 
REMARK       I    between atoms: C_39  and  N_41 
REMARK   21  A    between atoms: CA_42  and  C_46 
REMARK       I    between atoms: C_46  and  N_48 
REMARK   22  A    between atoms: N_48  and  CA_49 
REMARK   23  A    between atoms: CA_49  and  C_52 
REMARK   24  A    between atoms: CA_49  and  CB_50 
REMARK       I    between atoms: C_52  and  N_54 
REMARK   25  A    between atoms: N_54  and  CA_55 
REMARK   26  A    between atoms: CA_55  and  C_56 
REMARK       I    between atoms: C_56  and  N_58 
REMARK   27  A    between atoms: N_58  and  CA_59 
REMARK   28  A    between atoms: CA_59  and  C_60 
REMARK       I    between atoms: C_60  and  N_62 
REMARK   29  A    between atoms: N_62  and  CA_63 
REMARK   30  A    between atoms: CA_63  and  CB_64 
REMARK   31  A    between atoms: CA_63  and  C_66 
REMARK       I    between atoms: C_66  and  N_68 
REMARK   32  A    between atoms: N_68  and  CA_69 
REMARK   33  A    between atoms: CA_69  and  C_70 
ROOT
ATOM      1  CA  ARG     5      -7.763  -1.370   3.236  1.00  0.00     0.185 C 
ENDROOT
BRANCH   1   2
ATOM      2  N   ARG     5      -7.536  -0.191   4.093  1.00  0.00    -0.229 NA
ATOM      3  C   ASN     4      -6.366   0.391   4.309  1.00  0.00     0.275 C 
ATOM      4  O   ASN     4      -5.283  -0.114   4.034  1.00  0.00    -0.268 OA
BRANCH   3   5
ATOM      5  CA  ASN     4      -6.474   1.613   5.245  1.00  0.00     0.196 C 
BRANCH   5   6
ATOM      6  N   ASN     4      -5.146   2.226   5.458  1.00  0.00    -0.228 NA
ATOM      7  C   LEU     3      -4.784   2.802   6.602  1.00  0.00     0.274 C 
ATOM      8  O   LEU     3      -5.496   2.887   7.607  1.00  0.00    -0.268 OA
BRANCH   7   9
ATOM      9  CA  LEU     3      -3.349   3.327   6.633  1.00  0.00     0.186 C 
BRANCH   9  10
ATOM     10  N   LEU     3      -3.165   4.332   5.562  1.00  0.00    -0.229 NA
ATOM     11  C   GLY     2      -3.756   5.530   5.583  1.00  0.00     0.277 C 
ATOM     12  O   GLY     2      -4.368   5.958   6.550  1.00  0.00    -0.268 OA
BRANCH  11  13
ATOM     13  CA  GLY     2      -3.484   6.439   4.366  1.00  0.00     0.218 C 
BRANCH  13  14
ATOM     14  N   GLY     2      -3.868   7.868   4.462  1.00  0.00    -0.226 NA
ATOM     15  C   GLU     1      -3.612   8.740   3.480  1.00  0.00     0.289 C 
ATOM     16  O   GLU     1      -3.201   8.363   2.394  1.00  0.00    -0.268 OA
BRANCH  15  17
ATOM     17  CA  GLU     1      -3.930  10.241   3.712  1.00  0.00     0.381 C 
ATOM     18  N   GLU     1      -4.510  10.912   2.535  1.00  0.00     0.626 N 
BRANCH  17  19
ATOM     19  CB  GLU     1      -4.858  10.362   4.938  1.00  0.00     0.060 C 
BRANCH  19  20
ATOM     20  CG  GLU     1      -4.351  11.081   6.198  1.00  0.00     0.100 C 
BRANCH  20  21
ATOM     21  CD  GLU     1      -3.570  10.153   7.140  1.00  0.00     0.185 C 
ATOM     22  OE1 GLU     1      -2.354   9.987   6.932  1.00  0.00    -0.647 OA
ATOM     23  OE2 GLU     1      -4.189   9.579   8.053  1.00  0.00    -0.647 OA
ENDBRANCH  20  21
ENDBRANCH  19  20
ENDBRANCH  17  19
ENDBRANCH  15  17
ENDBRANCH  13  14
ENDBRANCH  11  13
ENDBRANCH   9  10
BRANCH   9  24
ATOM     24  CB  LEU     3      -3.083   3.952   8.008  1.00  0.00     0.034 C 
BRANCH  24  25
ATOM     25  CG  LEU     3      -1.722   3.565   8.614  1.00  0.00     0.002 C 
ATOM     26  CD1 LEU     3      -1.377   2.131   8.217  1.00  0.00     0.000 C 
ATOM     27  CD2 LEU     3      -0.616   4.519   8.149  1.00  0.00     0.000 C 
ENDBRANCH  24  25
ENDBRANCH   9  24
ENDBRANCH   7   9
ENDBRANCH   5   6
BRANCH   5  28
ATOM     28  CB  ASN     4      -7.460   2.658   4.696  1.00  0.00     0.126 C 
BRANCH  28  29
ATOM     29  CG  ASN     4      -8.781   2.738   5.485  1.00  0.00     0.276 C 
ATOM     30  ND2 ASN     4      -8.686   3.073   6.744  1.00  0.00    -0.107 N 
ATOM     31  OD1 ASN     4      -9.879   2.572   4.988  1.00  0.00    -0.269 OA
ENDBRANCH  28  29
ENDBRANCH   5  28
ENDBRANCH   3   5
ENDBRANCH   1   2
BRANCH   1  32
ATOM     32  CB  ARG     5      -7.801  -2.648   4.081  1.00  0.00     0.036 C 
BRANCH  32  33
ATOM     33  CG  ARG     5      -7.758  -3.936   3.257  1.00  0.00     0.029 C 
BRANCH  33  34
ATOM     34  CD  ARG     5      -8.721  -4.955   3.857  1.00  0.00     0.145 C 
BRANCH  34  35
ATOM     35  NE  ARG     5     -10.047  -4.360   4.149  1.00  0.00    -0.083 NA
ATOM     36  CZ  ARG     5     -11.091  -4.367   3.306  1.00  0.00     0.782 C 
ATOM     37  NH2 ARG     5     -12.323  -4.033   3.724  1.00  0.00     0.063 N 
ATOM     38  NH1 ARG     5     -10.974  -4.821   2.066  1.00  0.00     0.063 N 
ENDBRANCH  34  35
ENDBRANCH  33  34
ENDBRANCH  32  33
ENDBRANCH   1  32
BRANCH   1  39
ATOM     39  C   ARG     5      -9.097  -1.210   2.483  1.00  0.00     0.256 C 
ATOM     40  O   ARG     5      -9.164  -1.504   1.286  1.00  0.00    -0.270 OA
ATOM     41  N   PRO     6     -10.165  -0.849   3.202  1.00  0.00    -0.312 N 
ATOM     42  CA  PRO     6     -11.511  -0.618   2.631  1.00  0.00     0.165 C 
ATOM     43  CD  PRO     6     -10.222  -0.779   4.678  1.00  0.00     0.105 C 
ATOM     44  CB  PRO     6     -12.357  -0.132   3.809  1.00  0.00     0.034 C 
ATOM     45  CG  PRO     6     -11.716  -0.829   5.000  1.00  0.00     0.027 C 
BRANCH  42  46
ATOM     46  C   PRO     6     -11.473   0.435   1.512  1.00  0.00     0.272 C 
ATOM     47  N   SER     7     -12.057   0.172   0.350  1.00  0.00    -0.226 NA
ATOM     48  O   PRO     6     -10.814   1.469   1.658  1.00  0.00    -0.269 OA
BRANCH  47  49
ATOM     49  CA  SER     7     -12.768  -1.074  -0.023  1.00  0.00     0.219 C 
BRANCH  49  50
ATOM     50  C   SER     7     -11.898  -1.992  -0.900  1.00  0.00     0.277 C 
ATOM     51  O   SER     7     -10.933  -1.520  -1.491  1.00  0.00    -0.268 OA
ATOM     52  N   GLY     8     -12.118  -3.293  -0.768  1.00  0.00    -0.226 NA
BRANCH  52  53
ATOM     53  CA  GLY     8     -11.514  -4.291  -1.690  1.00  0.00     0.218 C 
BRANCH  53  54
ATOM     54  C   GLY     8     -12.321  -5.560  -2.016  1.00  0.00     0.277 C 
ATOM     55  N   GLY     9     -12.025  -6.669  -1.324  1.00  0.00    -0.226 NA
ATOM     56  O   GLY     8     -13.217  -5.521  -2.844  1.00  0.00    -0.268 OA
BRANCH  55  57
ATOM     57  CA  GLY     9     -12.689  -7.968  -1.558  1.00  0.00     0.218 C 
BRANCH  57  58
ATOM     58  C   GLY     9     -11.891  -9.134  -0.929  1.00  0.00     0.277 C 
ATOM     59  O   GLY     9     -10.756  -9.367  -1.325  1.00  0.00    -0.268 OA
ATOM     60  N   CYS    10     -12.453  -9.995  -0.092  1.00  0.00    -0.228 NA
BRANCH  60  61
ATOM     61  CA  CYS    10     -13.867 -10.042   0.353  1.00  0.00     0.198 C 
BRANCH  61  62
ATOM     62  CB  CYS    10     -14.442 -11.463   0.320  1.00  0.00     0.103 C 
ATOM     63  SG  CYS    10     -14.007 -12.530  -1.096  1.00  0.00    -0.080 SA
ENDBRANCH  61  62
BRANCH  61  64
ATOM     64  C   CYS    10     -14.085  -9.577   1.795  1.00  0.00     0.275 C 
ATOM     65  O   CYS    10     -13.495 -10.152   2.708  1.00  0.00    -0.268 OA
ATOM     66  N   GLY    11     -14.652  -8.385   1.892  1.00  0.00    -0.225 NA
BRANCH  66  67
ATOM     67  CA  GLY    11     -15.558  -8.053   3.001  1.00  0.00     0.226 C 
BRANCH  67  68
ATOM     68  C   GLY    11     -14.923  -6.825   3.672  1.00  0.00     0.211 C 
ATOM     69  O2  GLY    11     -13.862  -7.040   4.297  1.00  0.00    -0.646 OA
ATOM     70  O1  GLY    11     -15.288  -5.708   3.239  1.00  0.00    -0.646 OA
ENDBRANCH  67  68
ENDBRANCH  66  67
ENDBRANCH  61  64
ENDBRANCH  60  61
ENDBRANCH  57  58
ENDBRANCH  55  57
ENDBRANCH  53  54
ENDBRANCH  52  53
ENDBRANCH  49  50
BRANCH  49  71
ATOM     71  CB  SER     7     -14.051  -0.781  -0.803  1.00  0.00     0.216 C 
ATOM     72  OG  SER     7     -14.270   0.629  -0.867  1.00  0.00    -0.218 OA
ENDBRANCH  49  71
ENDBRANCH  47  49
ENDBRANCH  42  46
ENDBRANCH   1  39
TORSDOF 33
ENDMDL
MODEL 6
REMARK VINA RESULT:      -5.7      3.409      6.546
REMARK WARNING: 32 MAX_TORS EXCEEDED!!!
REMARK  33 active torsions:
REMARK  status: ('A' for Active; 'I' for Inactive)
REMARK    1  A    between atoms: CA_2  and  C_8 
REMARK    2  A    between atoms: CA_2  and  CB_3 
REMARK    3  A    between atoms: CB_3  and  CG_4 
REMARK    4  A    between atoms: CG_4  and  CD_5 
REMARK       I    between atoms: C_8  and  N_10 
REMARK    5  A    between atoms: N_10  and  CA_11 
REMARK    6  A    between atoms: CA_11  and  C_12 
REMARK       I    between atoms: C_12  and  N_14 
REMARK    7  A    between atoms: N_14  and  CA_15 
REMARK    8  A    between atoms: CA_15  and  C_20 
REMARK    9  A    between atoms: CA_15  and  CB_16 
REMARK   10  A    between atoms: CB_16  and  CG_17 
REMARK       I    between atoms: C_20  and  N_22 
REMARK   11  A    between atoms: N_22  and  CA_23 
REMARK   12  A    between atoms: CA_23  and  CB_24 
REMARK   13  A    between atoms: CA_23  and  C_28 
REMARK   14  A    between atoms: CB_24  and  CG_25 
REMARK       I    between atoms: C_28  and  N_30 
REMARK   15  A    between atoms: N_30  and  CA_31 
REMARK   16  A    between atoms: CA_31  and  CB_32 
REMARK   17  A    between atoms: CA_31  and  C_39 
REMARK   18  A    between atoms: CB_32  and  CG_33 
REMARK   19  A    between atoms: CG_33  and  CD_34 
REMARK   20  A    between atoms: CD_34  and  NE_35 
REMARK       I    between atoms: C_39  and  N_41 
REMARK   21  A    between atoms: CA_42  and  C_46 
REMARK       I    between atoms: C_46  and  N_48 
REMARK   22  A    between atoms: N_48  and  CA_49 
REMARK   23  A    between atoms: CA_49  and  C_52 
REMARK   24  A    between atoms: CA_49  and  CB_50 
REMARK       I    between atoms: C_52  and  N_54 
REMARK   25  A    between atoms: N_54  and  CA_55 
REMARK   26  A    between atoms: CA_55  and  C_56 
REMARK       I    between atoms: C_56  and  N_58 
REMARK   27  A    between atoms: N_58  and  CA_59 
REMARK   28  A    between atoms: CA_59  and  C_60 
REMARK       I    between atoms: C_60  and  N_62 
REMARK   29  A    between atoms: N_62  and  CA_63 
REMARK   30  A    between atoms: CA_63  and  CB_64 
REMARK   31  A    between atoms: CA_63  and  C_66 
REMARK       I    between atoms: C_66  and  N_68 
REMARK   32  A    between atoms: N_68  and  CA_69 
REMARK   33  A    between atoms: CA_69  and  C_70 
ROOT
ATOM      1  CA  ARG     5      -2.143   6.876   6.876  1.00  0.00     0.185 C 
ENDROOT
BRANCH   1   2
ATOM      2  N   ARG     5      -2.894   8.139   6.749  1.00  0.00    -0.229 NA
ATOM      3  C   ASN     4      -3.054   8.832   5.632  1.00  0.00     0.275 C 
ATOM      4  O   ASN     4      -2.395   8.657   4.612  1.00  0.00    -0.268 OA
BRANCH   3   5
ATOM      5  CA  ASN     4      -3.906  10.102   5.837  1.00  0.00     0.196 C 
BRANCH   5   6
ATOM      6  N   ASN     4      -4.050  10.844   4.566  1.00  0.00    -0.228 NA
ATOM      7  C   LEU     3      -4.040  12.172   4.493  1.00  0.00     0.274 C 
ATOM      8  O   LEU     3      -3.903  12.933   5.456  1.00  0.00    -0.268 OA
BRANCH   7   9
ATOM      9  CA  LEU     3      -4.149  12.741   3.079  1.00  0.00     0.186 C 
BRANCH   9  10
ATOM     10  N   LEU     3      -5.362  13.583   2.975  1.00  0.00    -0.229 NA
ATOM     11  C   GLY     2      -6.280  13.419   2.019  1.00  0.00     0.277 C 
ATOM     12  O   GLY     2      -6.280  12.471   1.247  1.00  0.00    -0.268 OA
BRANCH  11  13
ATOM     13  CA  GLY     2      -7.463  14.410   2.038  1.00  0.00     0.218 C 
BRANCH  13  14
ATOM     14  N   GLY     2      -8.592  14.131   2.957  1.00  0.00    -0.226 NA
ATOM     15  C   GLU     1      -8.592  14.548   4.229  1.00  0.00     0.289 C 
ATOM     16  O   GLU     1      -7.739  15.317   4.640  1.00  0.00    -0.268 OA
BRANCH  15  17
ATOM     17  CA  GLU     1      -9.753  14.105   5.159  1.00  0.00     0.381 C 
ATOM     18  N   GLU     1     -10.077  15.087   6.209  1.00  0.00     0.626 N 
BRANCH  17  19
ATOM     19  CB  GLU     1     -10.986  13.787   4.289  1.00  0.00     0.060 C 
BRANCH  19  20
ATOM     20  CG  GLU     1     -11.520  12.348   4.235  1.00  0.00     0.100 C 
BRANCH  20  21
ATOM     21  CD  GLU     1     -11.521  11.662   5.609  1.00  0.00     0.185 C 
ATOM     22  OE1 GLU     1     -10.828  10.640   5.760  1.00  0.00    -0.647 OA
ATOM     23  OE2 GLU     1     -12.239  12.136   6.507  1.00  0.00    -0.647 OA
ENDBRANCH  20  21
ENDBRANCH  19  20
ENDBRANCH  17  19
ENDBRANCH  15  17
ENDBRANCH  13  14
ENDBRANCH  11  13
ENDBRANCH   9  10
BRANCH   9  24
ATOM     24  CB  LEU     3      -2.893  13.569   2.782  1.00  0.00     0.034 C 
BRANCH  24  25
ATOM     25  CG  LEU     3      -2.180  13.170   1.477  1.00  0.00     0.002 C 
ATOM     26  CD1 LEU     3      -2.505  11.715   1.143  1.00  0.00     0.000 C 
ATOM     27  CD2 LEU     3      -2.597  14.080   0.317  1.00  0.00     0.000 C 
ENDBRANCH  24  25
ENDBRANCH   9  24
ENDBRANCH   7   9
ENDBRANCH   5   6
BRANCH   5  28
ATOM     28  CB  ASN     4      -5.291   9.764   6.415  1.00  0.00     0.126 C 
BRANCH  28  29
ATOM     29  CG  ASN     4      -5.613  10.509   7.725  1.00  0.00     0.276 C 
ATOM     30  ND2 ASN     4      -4.611  11.101   8.317  1.00  0.00    -0.107 N 
ATOM     31  OD1 ASN     4      -6.734  10.621   8.183  1.00  0.00    -0.269 OA
ENDBRANCH  28  29
ENDBRANCH   5  28
ENDBRANCH   3   5
ENDBRANCH   1   2
BRANCH   1  32
ATOM     32  CB  ARG     5      -1.545   6.746   8.281  1.00  0.00     0.036 C 
BRANCH  32  33
ATOM     33  CG  ARG     5      -0.409   7.731   8.564  1.00  0.00     0.029 C 
BRANCH  33  34
ATOM     34  CD  ARG     5       0.846   6.959   8.958  1.00  0.00     0.145 C 
BRANCH  34  35
ATOM     35  NE  ARG     5       1.393   6.174   7.825  1.00  0.00    -0.083 NA
ATOM     36  CZ  ARG     5       2.659   6.242   7.387  1.00  0.00     0.782 C 
ATOM     37  NH2 ARG     5       3.146   5.333   6.527  1.00  0.00     0.063 N 
ATOM     38  NH1 ARG     5       3.512   7.129   7.880  1.00  0.00     0.063 N 
ENDBRANCH  34  35
ENDBRANCH  33  34
ENDBRANCH  32  33
ENDBRANCH   1  32
BRANCH   1  39
ATOM     39  C   ARG     5      -3.084   5.687   6.605  1.00  0.00     0.256 C 
ATOM     40  O   ARG     5      -4.035   5.824   5.829  1.00  0.00    -0.270 OA
ATOM     41  N   PRO     6      -2.760   4.513   7.155  1.00  0.00    -0.312 N 
ATOM     42  CA  PRO     6      -3.570   3.282   7.023  1.00  0.00     0.165 C 
ATOM     43  CD  PRO     6      -1.483   4.209   7.837  1.00  0.00     0.105 C 
ATOM     44  CB  PRO     6      -2.857   2.249   7.897  1.00  0.00     0.034 C 
ATOM     45  CG  PRO     6      -1.400   2.682   7.817  1.00  0.00     0.027 C 
BRANCH  42  46
ATOM     46  C   PRO     6      -5.013   3.505   7.506  1.00  0.00     0.272 C 
ATOM     47  N   SER     7      -6.023   3.208   6.699  1.00  0.00    -0.226 NA
ATOM     48  O   PRO     6      -5.224   4.057   8.590  1.00  0.00    -0.269 OA
BRANCH  47  49
ATOM     49  CA  SER     7      -5.929   2.668   5.321  1.00  0.00     0.219 C 
BRANCH  49  50
ATOM     50  C   SER     7      -7.234   2.874   4.532  1.00  0.00     0.277 C 
ATOM     51  O   SER     7      -7.343   3.848   3.796  1.00  0.00    -0.268 OA
ATOM     52  N   GLY     8      -8.071   1.845   4.523  1.00  0.00    -0.226 NA
BRANCH  52  53
ATOM     53  CA  GLY     8      -9.453   1.960   3.988  1.00  0.00     0.218 C 
BRANCH  53  54
ATOM     54  C   GLY     8     -10.237   0.663   3.717  1.00  0.00     0.277 C 
ATOM     55  N   GLY     9     -10.850   0.555   2.529  1.00  0.00    -0.226 NA
ATOM     56  O   GLY     8     -10.248  -0.231   4.547  1.00  0.00    -0.268 OA
BRANCH  55  57
ATOM     57  CA  GLY     9     -11.668  -0.614   2.148  1.00  0.00     0.218 C 
BRANCH  57  58
ATOM     58  C   GLY     9     -10.889  -1.570   1.213  1.00  0.00     0.277 C 
ATOM     59  O   GLY     9     -10.182  -1.102   0.330  1.00  0.00    -0.268 OA
ATOM     60  N   CYS    10     -11.090  -2.880   1.229  1.00  0.00    -0.228 NA
BRANCH  60  61
ATOM     61  CA  CYS    10     -12.058  -3.644   2.053  1.00  0.00     0.198 C 
BRANCH  61  62
ATOM     62  CB  CYS    10     -12.958  -4.552   1.206  1.00  0.00     0.103 C 
ATOM     63  SG  CYS    10     -12.183  -5.504  -0.145  1.00  0.00    -0.080 SA
ENDBRANCH  61  62
BRANCH  61  64
ATOM     64  C   CYS    10     -11.408  -4.589   3.065  1.00  0.00     0.275 C 
ATOM     65  O   CYS    10     -12.119  -5.353   3.716  1.00  0.00    -0.268 OA
ATOM     66  N   GLY    11     -10.099  -4.714   2.917  1.00  0.00    -0.225 NA
BRANCH  66  67
ATOM     67  CA  GLY    11      -9.213  -4.933   4.068  1.00  0.00     0.226 C 
BRANCH  67  68
ATOM     68  C   GLY    11      -8.049  -3.952   3.860  1.00  0.00     0.211 C 
ATOM     69  O2  GLY    11      -6.911  -4.468   3.808  1.00  0.00    -0.646 OA
ATOM     70  O1  GLY    11      -8.349  -2.827   3.398  1.00  0.00    -0.646 OA
ENDBRANCH  67  68
ENDBRANCH  66  67
ENDBRANCH  61  64
ENDBRANCH  60  61
ENDBRANCH  57  58
ENDBRANCH  55  57
ENDBRANCH  53  54
ENDBRANCH  52  53
ENDBRANCH  49  50
BRANCH  49  71
ATOM     71  CB  SER     7      -5.627   1.168   5.321  1.00  0.00     0.216 C 
ATOM     72  OG  SER     7      -5.080   0.783   4.059  1.00  0.00    -0.218 OA
ENDBRANCH  49  71
ENDBRANCH  47  49
ENDBRANCH  42  46
ENDBRANCH   1  39
TORSDOF 33
ENDMDL
MODEL 7
REMARK VINA RESULT:      -5.5      2.974      4.808
REMARK WARNING: 32 MAX_TORS EXCEEDED!!!
REMARK  33 active torsions:
REMARK  status: ('A' for Active; 'I' for Inactive)
REMARK    1  A    between atoms: CA_2  and  C_8 
REMARK    2  A    between atoms: CA_2  and  CB_3 
REMARK    3  A    between atoms: CB_3  and  CG_4 
REMARK    4  A    between atoms: CG_4  and  CD_5 
REMARK       I    between atoms: C_8  and  N_10 
REMARK    5  A    between atoms: N_10  and  CA_11 
REMARK    6  A    between atoms: CA_11  and  C_12 
REMARK       I    between atoms: C_12  and  N_14 
REMARK    7  A    between atoms: N_14  and  CA_15 
REMARK    8  A    between atoms: CA_15  and  C_20 
REMARK    9  A    between atoms: CA_15  and  CB_16 
REMARK   10  A    between atoms: CB_16  and  CG_17 
REMARK       I    between atoms: C_20  and  N_22 
REMARK   11  A    between atoms: N_22  and  CA_23 
REMARK   12  A    between atoms: CA_23  and  CB_24 
REMARK   13  A    between atoms: CA_23  and  C_28 
REMARK   14  A    between atoms: CB_24  and  CG_25 
REMARK       I    between atoms: C_28  and  N_30 
REMARK   15  A    between atoms: N_30  and  CA_31 
REMARK   16  A    between atoms: CA_31  and  CB_32 
REMARK   17  A    between atoms: CA_31  and  C_39 
REMARK   18  A    between atoms: CB_32  and  CG_33 
REMARK   19  A    between atoms: CG_33  and  CD_34 
REMARK   20  A    between atoms: CD_34  and  NE_35 
REMARK       I    between atoms: C_39  and  N_41 
REMARK   21  A    between atoms: CA_42  and  C_46 
REMARK       I    between atoms: C_46  and  N_48 
REMARK   22  A    between atoms: N_48  and  CA_49 
REMARK   23  A    between atoms: CA_49  and  C_52 
REMARK   24  A    between atoms: CA_49  and  CB_50 
REMARK       I    between atoms: C_52  and  N_54 
REMARK   25  A    between atoms: N_54  and  CA_55 
REMARK   26  A    between atoms: CA_55  and  C_56 
REMARK       I    between atoms: C_56  and  N_58 
REMARK   27  A    between atoms: N_58  and  CA_59 
REMARK   28  A    between atoms: CA_59  and  C_60 
REMARK       I    between atoms: C_60  and  N_62 
REMARK   29  A    between atoms: N_62  and  CA_63 
REMARK   30  A    between atoms: CA_63  and  CB_64 
REMARK   31  A    between atoms: CA_63  and  C_66 
REMARK       I    between atoms: C_66  and  N_68 
REMARK   32  A    between atoms: N_68  and  CA_69 
REMARK   33  A    between atoms: CA_69  and  C_70 
ROOT
ATOM      1  CA  ARG     5      -4.001   7.920   7.178  1.00  0.00     0.185 C 
ENDROOT
BRANCH   1   2
ATOM      2  N   ARG     5      -4.276   8.753   5.993  1.00  0.00    -0.229 NA
ATOM      3  C   ASN     4      -3.430   9.606   5.436  1.00  0.00     0.275 C 
ATOM      4  O   ASN     4      -2.400  10.005   5.972  1.00  0.00    -0.268 OA
BRANCH   3   5
ATOM      5  CA  ASN     4      -4.023  10.312   4.200  1.00  0.00     0.196 C 
BRANCH   5   6
ATOM      6  N   ASN     4      -3.555  11.712   4.123  1.00  0.00    -0.228 NA
ATOM      7  C   LEU     3      -4.380  12.756   4.110  1.00  0.00     0.274 C 
ATOM      8  O   LEU     3      -5.611  12.686   4.168  1.00  0.00    -0.268 OA
BRANCH   7   9
ATOM      9  CA  LEU     3      -3.692  14.121   4.082  1.00  0.00     0.186 C 
BRANCH   9  10
ATOM     10  N   LEU     3      -3.649  14.625   2.691  1.00  0.00    -0.229 NA
ATOM     11  C   GLY     2      -2.566  14.524   1.916  1.00  0.00     0.277 C 
ATOM     12  O   GLY     2      -1.578  13.874   2.226  1.00  0.00    -0.268 OA
BRANCH  11  13
ATOM     13  CA  GLY     2      -2.684  15.137   0.504  1.00  0.00     0.218 C 
BRANCH  13  14
ATOM     14  N   GLY     2      -3.298  14.315  -0.566  1.00  0.00    -0.226 NA
ATOM     15  C   GLU     1      -4.576  14.466  -0.932  1.00  0.00     0.289 C 
ATOM     16  O   GLU     1      -5.244  15.399  -0.518  1.00  0.00    -0.268 OA
BRANCH  15  17
ATOM     17  CA  GLU     1      -5.177  13.480  -1.969  1.00  0.00     0.381 C 
ATOM     18  N   GLU     1      -4.416  12.225  -2.102  1.00  0.00     0.626 N 
BRANCH  17  19
ATOM     19  CB  GLU     1      -6.647  13.206  -1.591  1.00  0.00     0.060 C 
BRANCH  19  20
ATOM     20  CG  GLU     1      -7.627  12.729  -2.673  1.00  0.00     0.100 C 
BRANCH  20  21
ATOM     21  CD  GLU     1      -8.175  11.320  -2.402  1.00  0.00     0.185 C 
ATOM     22  OE1 GLU     1      -9.174  10.941  -3.038  1.00  0.00    -0.647 OA
ATOM     23  OE2 GLU     1      -7.616  10.625  -1.535  1.00  0.00    -0.647 OA
ENDBRANCH  20  21
ENDBRANCH  19  20
ENDBRANCH  17  19
ENDBRANCH  15  17
ENDBRANCH  13  14
ENDBRANCH  11  13
ENDBRANCH   9  10
BRANCH   9  24
ATOM     24  CB  LEU     3      -4.474  15.087   4.980  1.00  0.00     0.034 C 
BRANCH  24  25
ATOM     25  CG  LEU     3      -3.615  16.217   5.574  1.00  0.00     0.002 C 
ATOM     26  CD1 LEU     3      -2.136  15.901   5.355  1.00  0.00     0.000 C 
ATOM     27  CD2 LEU     3      -3.962  17.569   4.941  1.00  0.00     0.000 C 
ENDBRANCH  24  25
ENDBRANCH   9  24
ENDBRANCH   7   9
ENDBRANCH   5   6
BRANCH   5  28
ATOM     28  CB  ASN     4      -3.674   9.563   2.902  1.00  0.00     0.126 C 
BRANCH  28  29
ATOM     29  CG  ASN     4      -2.728  10.346   1.971  1.00  0.00     0.276 C 
ATOM     30  ND2 ASN     4      -1.454  10.280   2.251  1.00  0.00    -0.107 N 
ATOM     31  OD1 ASN     4      -3.096  10.949   0.981  1.00  0.00    -0.269 OA
ENDBRANCH  28  29
ENDBRANCH   5  28
ENDBRANCH   3   5
ENDBRANCH   1   2
BRANCH   1  32
ATOM     32  CB  ARG     5      -4.802   8.420   8.385  1.00  0.00     0.036 C 
BRANCH  32  33
ATOM     33  CG  ARG     5      -5.061   9.927   8.374  1.00  0.00     0.029 C 
BRANCH  33  34
ATOM     34  CD  ARG     5      -6.473  10.203   8.882  1.00  0.00     0.145 C 
BRANCH  34  35
ATOM     35  NE  ARG     5      -6.761  11.656   8.958  1.00  0.00    -0.083 NA
ATOM     36  CZ  ARG     5      -7.296  12.383   7.966  1.00  0.00     0.782 C 
ATOM     37  NH2 ARG     5      -7.753  13.626   8.186  1.00  0.00     0.063 N 
ATOM     38  NH1 ARG     5      -7.509  11.862   6.766  1.00  0.00     0.063 N 
ENDBRANCH  34  35
ENDBRANCH  33  34
ENDBRANCH  32  33
ENDBRANCH   1  32
BRANCH   1  39
ATOM     39  C   ARG     5      -4.379   6.457   6.878  1.00  0.00     0.256 C 
ATOM     40  O   ARG     5      -5.409   6.209   6.244  1.00  0.00    -0.270 OA
ATOM     41  N   PRO     6      -3.504   5.513   7.238  1.00  0.00    -0.312 N 
ATOM     42  CA  PRO     6      -3.726   4.061   7.055  1.00  0.00     0.165 C 
ATOM     43  CD  PRO     6      -2.128   5.759   7.720  1.00  0.00     0.105 C 
ATOM     44  CB  PRO     6      -2.511   3.395   7.704  1.00  0.00     0.034 C 
ATOM     45  CG  PRO     6      -1.410   4.426   7.505  1.00  0.00     0.027 C 
BRANCH  42  46
ATOM     46  C   PRO     6      -5.029   3.603   7.730  1.00  0.00     0.272 C 
ATOM     47  N   SER     7      -5.980   3.042   6.996  1.00  0.00    -0.226 NA
ATOM     48  O   PRO     6      -5.228   3.853   8.923  1.00  0.00    -0.269 OA
BRANCH  47  49
ATOM     49  CA  SER     7      -5.945   2.798   5.534  1.00  0.00     0.219 C 
BRANCH  49  50
ATOM     50  C   SER     7      -7.334   2.953   4.890  1.00  0.00     0.277 C 
ATOM     51  O   SER     7      -7.438   3.545   3.821  1.00  0.00    -0.268 OA
ATOM     52  N   GLY     8      -8.303   2.224   5.427  1.00  0.00    -0.226 NA
BRANCH  52  53
ATOM     53  CA  GLY     8      -9.730   2.418   5.059  1.00  0.00     0.218 C 
BRANCH  53  54
ATOM     54  C   GLY     8     -10.343   1.479   4.004  1.00  0.00     0.277 C 
ATOM     55  N   GLY     9      -9.601   0.433   3.611  1.00  0.00    -0.226 NA
ATOM     56  O   GLY     8     -11.474   1.676   3.591  1.00  0.00    -0.268 OA
BRANCH  55  57
ATOM     57  CA  GLY     9     -10.044  -0.526   2.579  1.00  0.00     0.218 C 
BRANCH  57  58
ATOM     58  C   GLY     9      -8.980  -1.622   2.332  1.00  0.00     0.277 C 
ATOM     59  O   GLY     9      -8.097  -1.426   1.507  1.00  0.00    -0.268 OA
ATOM     60  N   CYS    10      -9.088  -2.833   2.862  1.00  0.00    -0.228 NA
BRANCH  60  61
ATOM     61  CA  CYS    10     -10.186  -3.364   3.705  1.00  0.00     0.198 C 
BRANCH  61  62
ATOM     62  CB  CYS    10     -10.632  -4.765   3.269  1.00  0.00     0.103 C 
ATOM     63  SG  CYS    10     -11.730  -4.899   1.817  1.00  0.00    -0.080 SA
ENDBRANCH  61  62
BRANCH  61  64
ATOM     64  C   CYS    10      -9.818  -3.524   5.182  1.00  0.00     0.275 C 
ATOM     65  O   CYS    10      -9.486  -2.532   5.829  1.00  0.00    -0.268 OA
ATOM     66  N   GLY    11     -10.197  -4.678   5.706  1.00  0.00    -0.225 NA
BRANCH  66  67
ATOM     67  CA  GLY    11      -9.414  -5.338   6.760  1.00  0.00     0.226 C 
BRANCH  67  68
ATOM     68  C   GLY    11      -8.399  -6.212   6.005  1.00  0.00     0.211 C 
ATOM     69  O2  GLY    11      -7.213  -6.114   6.389  1.00  0.00    -0.646 OA
ATOM     70  O1  GLY    11      -8.870  -7.181   5.368  1.00  0.00    -0.646 OA
ENDBRANCH  67  68
ENDBRANCH  66  67
ENDBRANCH  61  64
ENDBRANCH  60  61
ENDBRANCH  57  58
ENDBRANCH  55  57
ENDBRANCH  53  54
ENDBRANCH  52  53
ENDBRANCH  49  50
BRANCH  49  71
ATOM     71  CB  SER     7      -5.446   1.389   5.207  1.00  0.00     0.216 C 
ATOM     72  OG  SER     7      -6.074   0.914   4.016  1.00  0.00    -0.218 OA
ENDBRANCH  49  71
ENDBRANCH  47  49
ENDBRANCH  42  46
ENDBRANCH   1  39
TORSDOF 33
ENDMDL
MODEL 8
REMARK VINA RESULT:      -5.4      4.355     17.430
REMARK WARNING: 32 MAX_TORS EXCEEDED!!!
REMARK  33 active torsions:
REMARK  status: ('A' for Active; 'I' for Inactive)
REMARK    1  A    between atoms: CA_2  and  C_8 
REMARK    2  A    between atoms: CA_2  and  CB_3 
REMARK    3  A    between atoms: CB_3  and  CG_4 
REMARK    4  A    between atoms: CG_4  and  CD_5 
REMARK       I    between atoms: C_8  and  N_10 
REMARK    5  A    between atoms: N_10  and  CA_11 
REMARK    6  A    between atoms: CA_11  and  C_12 
REMARK       I    between atoms: C_12  and  N_14 
REMARK    7  A    between atoms: N_14  and  CA_15 
REMARK    8  A    between atoms: CA_15  and  C_20 
REMARK    9  A    between atoms: CA_15  and  CB_16 
REMARK   10  A    between atoms: CB_16  and  CG_17 
REMARK       I    between atoms: C_20  and  N_22 
REMARK   11  A    between atoms: N_22  and  CA_23 
REMARK   12  A    between atoms: CA_23  and  CB_24 
REMARK   13  A    between atoms: CA_23  and  C_28 
REMARK   14  A    between atoms: CB_24  and  CG_25 
REMARK       I    between atoms: C_28  and  N_30 
REMARK   15  A    between atoms: N_30  and  CA_31 
REMARK   16  A    between atoms: CA_31  and  CB_32 
REMARK   17  A    between atoms: CA_31  and  C_39 
REMARK   18  A    between atoms: CB_32  and  CG_33 
REMARK   19  A    between atoms: CG_33  and  CD_34 
REMARK   20  A    between atoms: CD_34  and  NE_35 
REMARK       I    between atoms: C_39  and  N_41 
REMARK   21  A    between atoms: CA_42  and  C_46 
REMARK       I    between atoms: C_46  and  N_48 
REMARK   22  A    between atoms: N_48  and  CA_49 
REMARK   23  A    between atoms: CA_49  and  C_52 
REMARK   24  A    between atoms: CA_49  and  CB_50 
REMARK       I    between atoms: C_52  and  N_54 
REMARK   25  A    between atoms: N_54  and  CA_55 
REMARK   26  A    between atoms: CA_55  and  C_56 
REMARK       I    between atoms: C_56  and  N_58 
REMARK   27  A    between atoms: N_58  and  CA_59 
REMARK   28  A    between atoms: CA_59  and  C_60 
REMARK       I    between atoms: C_60  and  N_62 
REMARK   29  A    between atoms: N_62  and  CA_63 
REMARK   30  A    between atoms: CA_63  and  CB_64 
REMARK   31  A    between atoms: CA_63  and  C_66 
REMARK       I    between atoms: C_66  and  N_68 
REMARK   32  A    between atoms: N_68  and  CA_69 
REMARK   33  A    between atoms: CA_69  and  C_70 
ROOT
ATOM      1  CA  ARG     5      -9.141   1.243   3.847  1.00  0.00     0.185 C 
ENDROOT
BRANCH   1   2
ATOM      2  N   ARG     5      -8.960  -0.137   4.335  1.00  0.00    -0.229 NA
ATOM      3  C   ASN     4      -8.527  -1.159   3.614  1.00  0.00     0.275 C 
ATOM      4  O   ASN     4      -8.456  -1.159   2.389  1.00  0.00    -0.268 OA
BRANCH   3   5
ATOM      5  CA  ASN     4      -8.438  -2.467   4.428  1.00  0.00     0.196 C 
BRANCH   5   6
ATOM      6  N   ASN     4      -9.789  -2.968   4.759  1.00  0.00    -0.228 NA
ATOM      7  C   LEU     3     -10.210  -3.159   6.007  1.00  0.00     0.274 C 
ATOM      8  O   LEU     3      -9.540  -2.938   7.021  1.00  0.00    -0.268 OA
BRANCH   7   9
ATOM      9  CA  LEU     3     -11.658  -3.631   6.134  1.00  0.00     0.186 C 
BRANCH   9  10
ATOM     10  N   LEU     3     -11.682  -5.047   6.564  1.00  0.00    -0.229 NA
ATOM     11  C   GLY     2     -11.839  -6.061   5.709  1.00  0.00     0.277 C 
ATOM     12  O   GLY     2     -11.820  -5.923   4.495  1.00  0.00    -0.268 OA
BRANCH  11  13
ATOM     13  CA  GLY     2     -11.879  -7.472   6.333  1.00  0.00     0.218 C 
BRANCH  13  14
ATOM     14  N   GLY     2     -10.891  -8.473   5.862  1.00  0.00    -0.226 NA
ATOM     15  C   GLU     1      -9.644  -8.520   6.344  1.00  0.00     0.289 C 
ATOM     16  O   GLU     1      -9.316  -7.851   7.311  1.00  0.00    -0.268 OA
BRANCH  15  17
ATOM     17  CA  GLU     1      -8.634  -9.512   5.707  1.00  0.00     0.381 C 
ATOM     18  N   GLU     1      -7.224  -9.146   5.929  1.00  0.00     0.626 N 
BRANCH  17  19
ATOM     19  CB  GLU     1      -8.935 -10.928   6.239  1.00  0.00     0.060 C 
BRANCH  19  20
ATOM     20  CG  GLU     1      -9.117 -12.084   5.244  1.00  0.00     0.100 C 
BRANCH  20  21
ATOM     21  CD  GLU     1     -10.531 -12.139   4.646  1.00  0.00     0.185 C 
ATOM     22  OE1 GLU     1     -10.776 -11.445   3.643  1.00  0.00    -0.647 OA
ATOM     23  OE2 GLU     1     -11.384 -12.849   5.207  1.00  0.00    -0.647 OA
ENDBRANCH  20  21
ENDBRANCH  19  20
ENDBRANCH  17  19
ENDBRANCH  15  17
ENDBRANCH  13  14
ENDBRANCH  11  13
ENDBRANCH   9  10
BRANCH   9  24
ATOM     24  CB  LEU     3     -12.377  -2.746   7.159  1.00  0.00     0.034 C 
BRANCH  24  25
ATOM     25  CG  LEU     3     -13.184  -1.595   6.530  1.00  0.00     0.002 C 
ATOM     26  CD1 LEU     3     -12.437  -0.278   6.736  1.00  0.00     0.000 C 
ATOM     27  CD2 LEU     3     -13.420  -1.836   5.036  1.00  0.00     0.000 C 
ENDBRANCH  24  25
ENDBRANCH   9  24
ENDBRANCH   7   9
ENDBRANCH   5   6
BRANCH   5  28
ATOM     28  CB  ASN     4      -7.641  -3.546   3.676  1.00  0.00     0.126 C 
BRANCH  28  29
ATOM     29  CG  ASN     4      -8.425  -4.854   3.455  1.00  0.00     0.276 C 
ATOM     30  ND2 ASN     4      -8.252  -5.792   4.348  1.00  0.00    -0.107 N 
ATOM     31  OD1 ASN     4      -9.222  -5.023   2.552  1.00  0.00    -0.269 OA
ENDBRANCH  28  29
ENDBRANCH   5  28
ENDBRANCH   3   5
ENDBRANCH   1   2
BRANCH   1  32
ATOM     32  CB  ARG     5     -10.568   1.728   4.122  1.00  0.00     0.036 C 
BRANCH  32  33
ATOM     33  CG  ARG     5     -11.612   1.156   3.161  1.00  0.00     0.029 C 
BRANCH  33  34
ATOM     34  CD  ARG     5     -11.172   1.410   1.724  1.00  0.00     0.145 C 
BRANCH  34  35
ATOM     35  NE  ARG     5     -12.311   1.352   0.776  1.00  0.00    -0.083 NA
ATOM     36  CZ  ARG     5     -12.947   2.422   0.278  1.00  0.00     0.782 C 
ATOM     37  NH2 ARG     5     -13.799   2.305  -0.754  1.00  0.00     0.063 N 
ATOM     38  NH1 ARG     5     -12.669   3.648   0.697  1.00  0.00     0.063 N 
ENDBRANCH  34  35
ENDBRANCH  33  34
ENDBRANCH  32  33
ENDBRANCH   1  32
BRANCH   1  39
ATOM     39  C   ARG     5      -8.136   2.174   4.551  1.00  0.00     0.256 C 
ATOM     40  O   ARG     5      -7.468   2.971   3.885  1.00  0.00    -0.270 OA
ATOM     41  N   PRO     6      -8.107   2.143   5.887  1.00  0.00    -0.312 N 
ATOM     42  CA  PRO     6      -7.180   2.945   6.717  1.00  0.00     0.165 C 
ATOM     43  CD  PRO     6      -9.082   1.442   6.750  1.00  0.00     0.105 C 
ATOM     44  CB  PRO     6      -7.453   2.497   8.154  1.00  0.00     0.034 C 
ATOM     45  CG  PRO     6      -8.925   2.111   8.116  1.00  0.00     0.027 C 
BRANCH  42  46
ATOM     46  C   PRO     6      -5.714   2.686   6.331  1.00  0.00     0.272 C 
ATOM     47  N   SER     7      -4.900   3.715   6.141  1.00  0.00    -0.226 NA
ATOM     48  O   PRO     6      -5.331   1.536   6.097  1.00  0.00    -0.269 OA
BRANCH  47  49
ATOM     49  CA  SER     7      -5.246   5.153   6.251  1.00  0.00     0.219 C 
BRANCH  49  50
ATOM     50  C   SER     7      -5.025   5.901   4.924  1.00  0.00     0.277 C 
ATOM     51  O   SER     7      -5.924   5.922   4.090  1.00  0.00    -0.268 OA
ATOM     52  N   GLY     8      -3.952   6.678   4.871  1.00  0.00    -0.226 NA
BRANCH  52  53
ATOM     53  CA  GLY     8      -3.489   7.296   3.601  1.00  0.00     0.218 C 
BRANCH  53  54
ATOM     54  C   GLY     8      -3.746   8.799   3.388  1.00  0.00     0.277 C 
ATOM     55  N   GLY     9      -4.499   9.427   4.302  1.00  0.00    -0.226 NA
ATOM     56  O   GLY     8      -3.238   9.380   2.443  1.00  0.00    -0.268 OA
BRANCH  55  57
ATOM     57  CA  GLY     9      -4.860  10.856   4.206  1.00  0.00     0.218 C 
BRANCH  57  58
ATOM     58  C   GLY     9      -3.979  11.725   5.135  1.00  0.00     0.277 C 
ATOM     59  O   GLY     9      -3.685  11.307   6.247  1.00  0.00    -0.268 OA
ATOM     60  N   CYS    10      -3.670  12.979   4.833  1.00  0.00    -0.228 NA
BRANCH  60  61
ATOM     61  CA  CYS    10      -4.103  13.765   3.652  1.00  0.00     0.198 C 
BRANCH  61  62
ATOM     62  CB  CYS    10      -4.381  15.233   3.998  1.00  0.00     0.103 C 
ATOM     63  SG  CYS    10      -4.613  16.407   2.619  1.00  0.00    -0.080 SA
ENDBRANCH  61  62
BRANCH  61  64
ATOM     64  C   CYS    10      -3.066  13.828   2.529  1.00  0.00     0.275 C 
ATOM     65  O   CYS    10      -1.895  14.083   2.806  1.00  0.00    -0.268 OA
ATOM     66  N   GLY    11      -3.476  13.289   1.392  1.00  0.00    -0.225 NA
BRANCH  66  67
ATOM     67  CA  GLY    11      -3.037  13.813   0.091  1.00  0.00     0.226 C 
BRANCH  67  68
ATOM     68  C   GLY    11      -3.705  12.898  -0.947  1.00  0.00     0.211 C 
ATOM     69  O2  GLY    11      -3.951  11.735  -0.560  1.00  0.00    -0.646 OA
ATOM     70  O1  GLY    11      -4.269  13.470  -1.908  1.00  0.00    -0.646 OA
ENDBRANCH  67  68
ENDBRANCH  66  67
ENDBRANCH  61  64
ENDBRANCH  60  61
ENDBRANCH  57  58
ENDBRANCH  55  57
ENDBRANCH  53  54
ENDBRANCH  52  53
ENDBRANCH  49  50
BRANCH  49  71
ATOM     71  CB  SER     7      -4.404   5.858   7.317  1.00  0.00     0.216 C 
ATOM     72  OG  SER     7      -3.419   4.960   7.831  1.00  0.00    -0.218 OA
ENDBRANCH  49  71
ENDBRANCH  47  49
ENDBRANCH  42  46
ENDBRANCH   1  39
TORSDOF 33
ENDMDL
MODEL 9
REMARK VINA RESULT:      -5.4      3.962      7.361
REMARK WARNING: 32 MAX_TORS EXCEEDED!!!
REMARK  33 active torsions:
REMARK  status: ('A' for Active; 'I' for Inactive)
REMARK    1  A    between atoms: CA_2  and  C_8 
REMARK    2  A    between atoms: CA_2  and  CB_3 
REMARK    3  A    between atoms: CB_3  and  CG_4 
REMARK    4  A    between atoms: CG_4  and  CD_5 
REMARK       I    between atoms: C_8  and  N_10 
REMARK    5  A    between atoms: N_10  and  CA_11 
REMARK    6  A    between atoms: CA_11  and  C_12 
REMARK       I    between atoms: C_12  and  N_14 
REMARK    7  A    between atoms: N_14  and  CA_15 
REMARK    8  A    between atoms: CA_15  and  C_20 
REMARK    9  A    between atoms: CA_15  and  CB_16 
REMARK   10  A    between atoms: CB_16  and  CG_17 
REMARK       I    between atoms: C_20  and  N_22 
REMARK   11  A    between atoms: N_22  and  CA_23 
REMARK   12  A    between atoms: CA_23  and  CB_24 
REMARK   13  A    between atoms: CA_23  and  C_28 
REMARK   14  A    between atoms: CB_24  and  CG_25 
REMARK       I    between atoms: C_28  and  N_30 
REMARK   15  A    between atoms: N_30  and  CA_31 
REMARK   16  A    between atoms: CA_31  and  CB_32 
REMARK   17  A    between atoms: CA_31  and  C_39 
REMARK   18  A    between atoms: CB_32  and  CG_33 
REMARK   19  A    between atoms: CG_33  and  CD_34 
REMARK   20  A    between atoms: CD_34  and  NE_35 
REMARK       I    between atoms: C_39  and  N_41 
REMARK   21  A    between atoms: CA_42  and  C_46 
REMARK       I    between atoms: C_46  and  N_48 
REMARK   22  A    between atoms: N_48  and  CA_49 
REMARK   23  A    between atoms: CA_49  and  C_52 
REMARK   24  A    between atoms: CA_49  and  CB_50 
REMARK       I    between atoms: C_52  and  N_54 
REMARK   25  A    between atoms: N_54  and  CA_55 
REMARK   26  A    between atoms: CA_55  and  C_56 
REMARK       I    between atoms: C_56  and  N_58 
REMARK   27  A    between atoms: N_58  and  CA_59 
REMARK   28  A    between atoms: CA_59  and  C_60 
REMARK       I    between atoms: C_60  and  N_62 
REMARK   29  A    between atoms: N_62  and  CA_63 
REMARK   30  A    between atoms: CA_63  and  CB_64 
REMARK   31  A    between atoms: CA_63  and  C_66 
REMARK       I    between atoms: C_66  and  N_68 
REMARK   32  A    between atoms: N_68  and  CA_69 
REMARK   33  A    between atoms: CA_69  and  C_70 
ROOT
ATOM      1  CA  ARG     5      -2.209   6.869   6.738  1.00  0.00     0.185 C 
ENDROOT
BRANCH   1   2
ATOM      2  N   ARG     5      -2.906   8.102   6.327  1.00  0.00    -0.229 NA
ATOM      3  C   ASN     4      -3.076   8.513   5.080  1.00  0.00     0.275 C 
ATOM      4  O   ASN     4      -2.466   8.062   4.116  1.00  0.00    -0.268 OA
BRANCH   3   5
ATOM      5  CA  ASN     4      -3.861   9.838   4.992  1.00  0.00     0.196 C 
BRANCH   5   6
ATOM      6  N   ASN     4      -4.246  10.125   3.594  1.00  0.00    -0.228 NA
ATOM      7  C   LEU     3      -4.223  11.347   3.068  1.00  0.00     0.274 C 
ATOM      8  O   LEU     3      -3.876  12.369   3.667  1.00  0.00    -0.268 OA
BRANCH   7   9
ATOM      9  CA  LEU     3      -4.607  11.420   1.590  1.00  0.00     0.186 C 
BRANCH   9  10
ATOM     10  N   LEU     3      -5.702  12.400   1.410  1.00  0.00    -0.229 NA
ATOM     11  C   GLY     2      -6.587  12.323   0.412  1.00  0.00     0.277 C 
ATOM     12  O   GLY     2      -6.667  11.362  -0.340  1.00  0.00    -0.268 OA
BRANCH  11  13
ATOM     13  CA  GLY     2      -7.639  13.450   0.353  1.00  0.00     0.218 C 
BRANCH  13  14
ATOM     14  N   GLY     2      -8.965  13.138  -0.233  1.00  0.00    -0.226 NA
ATOM     15  C   GLU     1      -9.437  13.785  -1.306  1.00  0.00     0.289 C 
ATOM     16  O   GLU     1      -8.728  14.542  -1.947  1.00  0.00    -0.268 OA
BRANCH  15  17
ATOM     17  CA  GLU     1     -10.885  13.488  -1.779  1.00  0.00     0.381 C 
ATOM     18  N   GLU     1     -11.171  12.052  -1.944  1.00  0.00     0.626 N 
BRANCH  17  19
ATOM     19  CB  GLU     1     -11.869  14.145  -0.789  1.00  0.00     0.060 C 
BRANCH  19  20
ATOM     20  CG  GLU     1     -12.533  13.285   0.297  1.00  0.00     0.100 C 
BRANCH  20  21
ATOM     21  CD  GLU     1     -14.028  13.049   0.038  1.00  0.00     0.185 C 
ATOM     22  OE1 GLU     1     -14.691  12.453   0.905  1.00  0.00    -0.647 OA
ATOM     23  OE2 GLU     1     -14.510  13.434  -1.042  1.00  0.00    -0.647 OA
ENDBRANCH  20  21
ENDBRANCH  19  20
ENDBRANCH  17  19
ENDBRANCH  15  17
ENDBRANCH  13  14
ENDBRANCH  11  13
ENDBRANCH   9  10
BRANCH   9  24
ATOM     24  CB  LEU     3      -3.374  11.837   0.780  1.00  0.00     0.034 C 
BRANCH  24  25
ATOM     25  CG  LEU     3      -3.184  13.361   0.677  1.00  0.00     0.002 C 
ATOM     26  CD1 LEU     3      -1.766  13.728   1.111  1.00  0.00     0.000 C 
ATOM     27  CD2 LEU     3      -3.440  13.856  -0.751  1.00  0.00     0.000 C 
ENDBRANCH  24  25
ENDBRANCH   9  24
ENDBRANCH   7   9
ENDBRANCH   5   6
BRANCH   5  28
ATOM     28  CB  ASN     4      -5.108   9.816   5.893  1.00  0.00     0.126 C 
BRANCH  28  29
ATOM     29  CG  ASN     4      -5.047  10.821   7.059  1.00  0.00     0.276 C 
ATOM     30  ND2 ASN     4      -5.826  10.575   8.079  1.00  0.00    -0.107 N 
ATOM     31  OD1 ASN     4      -4.284  11.767   7.101  1.00  0.00    -0.269 OA
ENDBRANCH  28  29
ENDBRANCH   5  28
ENDBRANCH   3   5
ENDBRANCH   1   2
BRANCH   1  32
ATOM     32  CB  ARG     5      -1.791   6.954   8.210  1.00  0.00     0.036 C 
BRANCH  32  33
ATOM     33  CG  ARG     5      -0.621   7.905   8.467  1.00  0.00     0.029 C 
BRANCH  33  34
ATOM     34  CD  ARG     5       0.671   7.103   8.577  1.00  0.00     0.145 C 
BRANCH  34  35
ATOM     35  NE  ARG     5       1.845   7.876   8.104  1.00  0.00    -0.083 NA
ATOM     36  CZ  ARG     5       2.919   7.345   7.501  1.00  0.00     0.782 C 
ATOM     37  NH2 ARG     5       3.824   8.122   6.884  1.00  0.00     0.063 N 
ATOM     38  NH1 ARG     5       3.064   6.033   7.381  1.00  0.00     0.063 N 
ENDBRANCH  34  35
ENDBRANCH  33  34
ENDBRANCH  32  33
ENDBRANCH   1  32
BRANCH   1  39
ATOM     39  C   ARG     5      -3.141   5.660   6.536  1.00  0.00     0.256 C 
ATOM     40  O   ARG     5      -4.119   5.758   5.789  1.00  0.00    -0.270 OA
ATOM     41  N   PRO     6      -2.781   4.508   7.111  1.00  0.00    -0.312 N 
ATOM     42  CA  PRO     6      -3.576   3.262   7.046  1.00  0.00     0.165 C 
ATOM     43  CD  PRO     6      -1.477   4.244   7.758  1.00  0.00     0.105 C 
ATOM     44  CB  PRO     6      -2.818   2.267   7.926  1.00  0.00     0.034 C 
ATOM     45  CG  PRO     6      -1.372   2.718   7.783  1.00  0.00     0.027 C 
BRANCH  42  46
ATOM     46  C   PRO     6      -5.005   3.480   7.569  1.00  0.00     0.272 C 
ATOM     47  N   SER     7      -6.036   3.197   6.785  1.00  0.00    -0.226 NA
ATOM     48  O   PRO     6      -5.186   4.014   8.668  1.00  0.00    -0.269 OA
BRANCH  47  49
ATOM     49  CA  SER     7      -5.980   2.679   5.397  1.00  0.00     0.219 C 
BRANCH  49  50
ATOM     50  C   SER     7      -7.283   2.953   4.626  1.00  0.00     0.277 C 
ATOM     51  O   SER     7      -7.319   3.871   3.814  1.00  0.00    -0.268 OA
ATOM     52  N   GLY     8      -8.219   2.019   4.725  1.00  0.00    -0.226 NA
BRANCH  52  53
ATOM     53  CA  GLY     8      -9.601   2.232   4.218  1.00  0.00     0.218 C 
BRANCH  53  54
ATOM     54  C   GLY     8     -10.353   1.024   3.632  1.00  0.00     0.277 C 
ATOM     55  N   GLY     9      -9.739  -0.167   3.690  1.00  0.00    -0.226 NA
ATOM     56  O   GLY     8     -11.478   1.162   3.180  1.00  0.00    -0.268 OA
BRANCH  55  57
ATOM     57  CA  GLY     9     -10.324  -1.404   3.133  1.00  0.00     0.218 C 
BRANCH  57  58
ATOM     58  C   GLY     9      -9.913  -1.609   1.656  1.00  0.00     0.277 C 
ATOM     59  O   GLY     9      -8.749  -1.423   1.326  1.00  0.00    -0.268 OA
ATOM     60  N   CYS    10     -10.811  -1.817   0.703  1.00  0.00    -0.228 NA
BRANCH  60  61
ATOM     61  CA  CYS    10     -12.288  -1.855   0.834  1.00  0.00     0.198 C 
BRANCH  61  62
ATOM     62  CB  CYS    10     -12.983  -0.856  -0.097  1.00  0.00     0.103 C 
ATOM     63  SG  CYS    10     -12.052  -0.243  -1.543  1.00  0.00    -0.080 SA
ENDBRANCH  61  62
BRANCH  61  64
ATOM     64  C   CYS    10     -12.912  -3.206   0.478  1.00  0.00     0.275 C 
ATOM     65  O   CYS    10     -14.129  -3.282   0.316  1.00  0.00    -0.268 OA
ATOM     66  N   GLY    11     -12.036  -4.109   0.069  1.00  0.00    -0.225 NA
BRANCH  66  67
ATOM     67  CA  GLY    11     -12.220  -5.541   0.347  1.00  0.00     0.226 C 
BRANCH  67  68
ATOM     68  C   GLY    11     -12.037  -6.232  -1.013  1.00  0.00     0.211 C 
ATOM     69  O2  GLY    11     -11.741  -5.478  -1.965  1.00  0.00    -0.646 OA
ATOM     70  O1  GLY    11     -11.830  -7.466  -0.983  1.00  0.00    -0.646 OA
ENDBRANCH  67  68
ENDBRANCH  66  67
ENDBRANCH  61  64
ENDBRANCH  60  61
ENDBRANCH  57  58
ENDBRANCH  55  57
ENDBRANCH  53  54
ENDBRANCH  52  53
ENDBRANCH  49  50
BRANCH  49  71
ATOM     71  CB  SER     7      -5.741   1.168   5.366  1.00  0.00     0.216 C 
ATOM     72  OG  SER     7      -5.192   0.788   4.103  1.00  0.00    -0.218 OA
ENDBRANCH  49  71
ENDBRANCH  47  49
ENDBRANCH  42  46
ENDBRANCH   1  39
TORSDOF 33
ENDMDL
