MODEL 1
REMARK VINA RESULT:      -5.7      0.000      0.000
REMARK WARNING: 32 MAX_TORS EXCEEDED!!!
REMARK  33 active torsions:
REMARK  status: ('A' for Active; 'I' for Inactive)
REMARK    1  A    between atoms: CA_2  and  C_8 
REMARK    2  A    between atoms: CA_2  and  CB_3 
REMARK    3  A    between atoms: CB_3  and  CG_4 
REMARK    4  A    between atoms: CG_4  and  CD_5 
REMARK       I    between atoms: C_8  and  N_10 
REMARK    5  A    between atoms: N_10  and  CA_11 
REMARK    6  A    between atoms: CA_11  and  C_12 
REMARK       I    between atoms: C_12  and  N_14 
REMARK    7  A    between atoms: N_14  and  CA_15 
REMARK    8  A    between atoms: CA_15  and  C_20 
REMARK    9  A    between atoms: CA_15  and  CB_16 
REMARK   10  A    between atoms: CB_16  and  CG_17 
REMARK       I    between atoms: C_20  and  N_22 
REMARK   11  A    between atoms: N_22  and  CA_23 
REMARK   12  A    between atoms: CA_23  and  CB_24 
REMARK   13  A    between atoms: CA_23  and  C_28 
REMARK   14  A    between atoms: CB_24  and  CG_25 
REMARK       I    between atoms: C_28  and  N_30 
REMARK   15  A    between atoms: N_30  and  CA_31 
REMARK   16  A    between atoms: CA_31  and  CB_32 
REMARK   17  A    between atoms: CA_31  and  C_39 
REMARK   18  A    between atoms: CB_32  and  CG_33 
REMARK   19  A    between atoms: CG_33  and  CD_34 
REMARK   20  A    between atoms: CD_34  and  NE_35 
REMARK       I    between atoms: C_39  and  N_41 
REMARK   21  A    between atoms: CA_42  and  C_46 
REMARK       I    between atoms: C_46  and  N_48 
REMARK   22  A    between atoms: N_48  and  CA_49 
REMARK   23  A    between atoms: CA_49  and  C_52 
REMARK   24  A    between atoms: CA_49  and  CB_50 
REMARK       I    between atoms: C_52  and  N_54 
REMARK   25  A    between atoms: N_54  and  CA_55 
REMARK   26  A    between atoms: CA_55  and  C_56 
REMARK       I    between atoms: C_56  and  N_58 
REMARK   27  A    between atoms: N_58  and  CA_59 
REMARK   28  A    between atoms: CA_59  and  C_60 
REMARK       I    between atoms: C_60  and  N_62 
REMARK   29  A    between atoms: N_62  and  CA_63 
REMARK   30  A    between atoms: CA_63  and  CB_64 
REMARK   31  A    between atoms: CA_63  and  C_66 
REMARK       I    between atoms: C_66  and  N_68 
REMARK   32  A    between atoms: N_68  and  CA_69 
REMARK   33  A    between atoms: CA_69  and  C_70 
ROOT
ATOM      1  CA  ARG     5       3.814  -0.177  10.435  1.00  0.00     0.185 C 
ENDROOT
BRANCH   1   2
ATOM      2  N   ARG     5       5.198  -0.157   9.926  1.00  0.00    -0.229 NA
ATOM      3  C   ASN     4       6.285  -0.421  10.634  1.00  0.00     0.275 C 
ATOM      4  O   ASN     4       6.314  -0.470  11.860  1.00  0.00    -0.268 OA
BRANCH   3   5
ATOM      5  CA  ASN     4       7.578  -0.326   9.798  1.00  0.00     0.196 C 
BRANCH   5   6
ATOM      6  N   ASN     4       7.733  -1.518   8.939  1.00  0.00    -0.228 NA
ATOM      7  C   LEU     3       8.518  -2.546   9.253  1.00  0.00     0.274 C 
ATOM      8  O   LEU     3       9.193  -2.631  10.283  1.00  0.00    -0.268 OA
BRANCH   7   9
ATOM      9  CA  LEU     3       8.495  -3.703   8.255  1.00  0.00     0.186 C 
BRANCH   9  10
ATOM     10  N   LEU     3       7.764  -4.849   8.841  1.00  0.00    -0.229 NA
ATOM     11  C   GLY     2       8.251  -6.093   8.847  1.00  0.00     0.277 C 
ATOM     12  O   GLY     2       9.395  -6.366   8.514  1.00  0.00    -0.268 OA
BRANCH  11  13
ATOM     13  CA  GLY     2       7.339  -7.173   9.466  1.00  0.00     0.218 C 
BRANCH  13  14
ATOM     14  N   GLY     2       6.451  -6.780  10.587  1.00  0.00    -0.226 NA
ATOM     15  C   GLU     1       6.617  -7.257  11.825  1.00  0.00     0.289 C 
ATOM     16  O   GLU     1       7.606  -7.906  12.123  1.00  0.00    -0.268 OA
BRANCH  15  17
ATOM     17  CA  GLU     1       5.569  -6.896  12.911  1.00  0.00     0.381 C 
ATOM     18  N   GLU     1       5.160  -5.481  12.892  1.00  0.00     0.626 N 
BRANCH  17  19
ATOM     19  CB  GLU     1       4.353  -7.832  12.749  1.00  0.00     0.060 C 
BRANCH  19  20
ATOM     20  CG  GLU     1       3.202  -7.420  11.819  1.00  0.00     0.100 C 
BRANCH  20  21
ATOM     21  CD  GLU     1       1.820  -7.764  12.393  1.00  0.00     0.185 C 
ATOM     22  OE1 GLU     1       1.482  -8.961  12.443  1.00  0.00    -0.647 OA
ATOM     23  OE2 GLU     1       1.080  -6.833  12.756  1.00  0.00    -0.647 OA
ENDBRANCH  20  21
ENDBRANCH  19  20
ENDBRANCH  17  19
ENDBRANCH  15  17
ENDBRANCH  13  14
ENDBRANCH  11  13
ENDBRANCH   9  10
BRANCH   9  24
ATOM     24  CB  LEU     3       7.808  -3.230   6.968  1.00  0.00     0.034 C 
BRANCH  24  25
ATOM     25  CG  LEU     3       8.780  -2.982   5.800  1.00  0.00     0.002 C 
ATOM     26  CD1 LEU     3       8.641  -1.538   5.321  1.00  0.00     0.000 C 
ATOM     27  CD2 LEU     3      10.228  -3.260   6.215  1.00  0.00     0.000 C 
ENDBRANCH  24  25
ENDBRANCH   9  24
ENDBRANCH   7   9
ENDBRANCH   5   6
BRANCH   5  28
ATOM     28  CB  ASN     4       7.603   0.953   8.943  1.00  0.00     0.126 C 
BRANCH  28  29
ATOM     29  CG  ASN     4       8.003   2.216   9.729  1.00  0.00     0.276 C 
ATOM     30  ND2 ASN     4       7.026   2.988  10.122  1.00  0.00    -0.107 N 
ATOM     31  OD1 ASN     4       9.147   2.484  10.045  1.00  0.00    -0.269 OA
ENDBRANCH  28  29
ENDBRANCH   5  28
ENDBRANCH   3   5
ENDBRANCH   1   2
BRANCH   1  32
ATOM     32  CB  ARG     5       2.913   0.721   9.580  1.00  0.00     0.036 C 
BRANCH  32  33
ATOM     33  CG  ARG     5       3.609   1.981   9.061  1.00  0.00     0.029 C 
BRANCH  33  34
ATOM     34  CD  ARG     5       2.943   3.213   9.665  1.00  0.00     0.145 C 
BRANCH  34  35
ATOM     35  NE  ARG     5       1.843   3.723   8.811  1.00  0.00    -0.083 NA
ATOM     36  CZ  ARG     5       1.858   4.898   8.165  1.00  0.00     0.782 C 
ATOM     37  NH2 ARG     5       0.945   5.184   7.222  1.00  0.00     0.063 N 
ATOM     38  NH1 ARG     5       2.843   5.769   8.339  1.00  0.00     0.063 N 
ENDBRANCH  34  35
ENDBRANCH  33  34
ENDBRANCH  32  33
ENDBRANCH   1  32
BRANCH   1  39
ATOM     39  C   ARG     5       3.277  -1.620  10.409  1.00  0.00     0.256 C 
ATOM     40  O   ARG     5       3.327  -2.274   9.363  1.00  0.00    -0.270 OA
ATOM     41  N   PRO     6       2.867  -2.140  11.570  1.00  0.00    -0.312 N 
ATOM     42  CA  PRO     6       2.293  -3.497  11.717  1.00  0.00     0.165 C 
ATOM     43  CD  PRO     6       3.062  -1.527  12.902  1.00  0.00     0.105 C 
ATOM     44  CB  PRO     6       1.887  -3.593  13.189  1.00  0.00     0.034 C 
ATOM     45  CG  PRO     6       2.898  -2.690  13.881  1.00  0.00     0.027 C 
BRANCH  42  46
ATOM     46  C   PRO     6       1.075  -3.693  10.798  1.00  0.00     0.272 C 
ATOM     47  N   SER     7       0.007  -2.924  10.961  1.00  0.00    -0.226 NA
ATOM     48  O   PRO     6       1.054  -4.627   9.992  1.00  0.00    -0.269 OA
BRANCH  47  49
ATOM     49  CA  SER     7      -0.171  -1.854  11.971  1.00  0.00     0.219 C 
BRANCH  49  50
ATOM     50  C   SER     7      -1.454  -2.050  12.798  1.00  0.00     0.277 C 
ATOM     51  O   SER     7      -1.423  -1.859  14.009  1.00  0.00    -0.268 OA
ATOM     52  N   GLY     8      -2.574  -2.188  12.102  1.00  0.00    -0.226 NA
BRANCH  52  53
ATOM     53  CA  GLY     8      -3.854  -2.593  12.742  1.00  0.00     0.218 C 
BRANCH  53  54
ATOM     54  C   GLY     8      -4.948  -3.209  11.851  1.00  0.00     0.277 C 
ATOM     55  N   GLY     9      -5.305  -2.521  10.756  1.00  0.00    -0.226 NA
ATOM     56  O   GLY     8      -5.424  -4.297  12.128  1.00  0.00    -0.268 OA
BRANCH  55  57
ATOM     57  CA  GLY     9      -6.366  -2.970   9.833  1.00  0.00     0.218 C 
BRANCH  57  58
ATOM     58  C   GLY     9      -7.364  -1.829   9.520  1.00  0.00     0.277 C 
ATOM     59  O   GLY     9      -8.088  -1.404  10.411  1.00  0.00    -0.268 OA
ATOM     60  N   CYS    10      -7.579  -1.409   8.281  1.00  0.00    -0.228 NA
BRANCH  60  61
ATOM     61  CA  CYS    10      -6.986  -1.931   7.025  1.00  0.00     0.198 C 
BRANCH  61  62
ATOM     62  CB  CYS    10      -8.051  -2.394   6.024  1.00  0.00     0.103 C 
ATOM     63  SG  CYS    10      -9.226  -3.684   6.561  1.00  0.00    -0.080 SA
ENDBRANCH  61  62
BRANCH  61  64
ATOM     64  C   CYS    10      -6.157  -0.903   6.252  1.00  0.00     0.275 C 
ATOM     65  O   CYS    10      -5.093  -0.509   6.727  1.00  0.00    -0.268 OA
ATOM     66  N   GLY    11      -6.516  -0.770   4.986  1.00  0.00    -0.225 NA
BRANCH  66  67
ATOM     67  CA  GLY    11      -6.414   0.520   4.289  1.00  0.00     0.226 C 
BRANCH  67  68
ATOM     68  C   GLY    11      -7.774   1.198   4.515  1.00  0.00     0.211 C 
ATOM     69  O2  GLY    11      -8.134   1.300   5.708  1.00  0.00    -0.646 OA
ATOM     70  O1  GLY    11      -8.206   1.899   3.572  1.00  0.00    -0.646 OA
ENDBRANCH  67  68
ENDBRANCH  66  67
ENDBRANCH  61  64
ENDBRANCH  60  61
ENDBRANCH  57  58
ENDBRANCH  55  57
ENDBRANCH  53  54
ENDBRANCH  52  53
ENDBRANCH  49  50
BRANCH  49  71
ATOM     71  CB  SER     7      -0.255  -0.471  11.322  1.00  0.00     0.216 C 
ATOM     72  OG  SER     7      -0.335  -0.604   9.902  1.00  0.00    -0.218 OA
ENDBRANCH  49  71
ENDBRANCH  47  49
ENDBRANCH  42  46
ENDBRANCH   1  39
TORSDOF 33
ENDMDL
MODEL 2
REMARK VINA RESULT:      -5.6      8.145     14.223
REMARK WARNING: 32 MAX_TORS EXCEEDED!!!
REMARK  33 active torsions:
REMARK  status: ('A' for Active; 'I' for Inactive)
REMARK    1  A    between atoms: CA_2  and  C_8 
REMARK    2  A    between atoms: CA_2  and  CB_3 
REMARK    3  A    between atoms: CB_3  and  CG_4 
REMARK    4  A    between atoms: CG_4  and  CD_5 
REMARK       I    between atoms: C_8  and  N_10 
REMARK    5  A    between atoms: N_10  and  CA_11 
REMARK    6  A    between atoms: CA_11  and  C_12 
REMARK       I    between atoms: C_12  and  N_14 
REMARK    7  A    between atoms: N_14  and  CA_15 
REMARK    8  A    between atoms: CA_15  and  C_20 
REMARK    9  A    between atoms: CA_15  and  CB_16 
REMARK   10  A    between atoms: CB_16  and  CG_17 
REMARK       I    between atoms: C_20  and  N_22 
REMARK   11  A    between atoms: N_22  and  CA_23 
REMARK   12  A    between atoms: CA_23  and  CB_24 
REMARK   13  A    between atoms: CA_23  and  C_28 
REMARK   14  A    between atoms: CB_24  and  CG_25 
REMARK       I    between atoms: C_28  and  N_30 
REMARK   15  A    between atoms: N_30  and  CA_31 
REMARK   16  A    between atoms: CA_31  and  CB_32 
REMARK   17  A    between atoms: CA_31  and  C_39 
REMARK   18  A    between atoms: CB_32  and  CG_33 
REMARK   19  A    between atoms: CG_33  and  CD_34 
REMARK   20  A    between atoms: CD_34  and  NE_35 
REMARK       I    between atoms: C_39  and  N_41 
REMARK   21  A    between atoms: CA_42  and  C_46 
REMARK       I    between atoms: C_46  and  N_48 
REMARK   22  A    between atoms: N_48  and  CA_49 
REMARK   23  A    between atoms: CA_49  and  C_52 
REMARK   24  A    between atoms: CA_49  and  CB_50 
REMARK       I    between atoms: C_52  and  N_54 
REMARK   25  A    between atoms: N_54  and  CA_55 
REMARK   26  A    between atoms: CA_55  and  C_56 
REMARK       I    between atoms: C_56  and  N_58 
REMARK   27  A    between atoms: N_58  and  CA_59 
REMARK   28  A    between atoms: CA_59  and  C_60 
REMARK       I    between atoms: C_60  and  N_62 
REMARK   29  A    between atoms: N_62  and  CA_63 
REMARK   30  A    between atoms: CA_63  and  CB_64 
REMARK   31  A    between atoms: CA_63  and  C_66 
REMARK       I    between atoms: C_66  and  N_68 
REMARK   32  A    between atoms: N_68  and  CA_69 
REMARK   33  A    between atoms: CA_69  and  C_70 
ROOT
ATOM      1  CA  ARG     5      13.877 -11.403   9.798  1.00  0.00     0.185 C 
ENDROOT
BRANCH   1   2
ATOM      2  N   ARG     5      13.742 -11.782   8.379  1.00  0.00    -0.229 NA
ATOM      3  C   ASN     4      13.431 -12.987   7.929  1.00  0.00     0.275 C 
ATOM      4  O   ASN     4      13.460 -14.007   8.611  1.00  0.00    -0.268 OA
BRANCH   3   5
ATOM      5  CA  ASN     4      13.356 -13.047   6.389  1.00  0.00     0.196 C 
BRANCH   5   6
ATOM      6  N   ASN     4      12.170 -13.812   5.953  1.00  0.00    -0.228 NA
ATOM      7  C   LEU     3      12.202 -14.711   4.972  1.00  0.00     0.274 C 
ATOM      8  O   LEU     3      13.209 -15.015   4.324  1.00  0.00    -0.268 OA
BRANCH   7   9
ATOM      9  CA  LEU     3      10.879 -15.430   4.713  1.00  0.00     0.186 C 
BRANCH   9  10
ATOM     10  N   LEU     3      10.155 -15.612   5.991  1.00  0.00    -0.229 NA
ATOM     11  C   GLY     2       9.135 -16.463   6.132  1.00  0.00     0.277 C 
ATOM     12  O   GLY     2       8.814 -17.272   5.274  1.00  0.00    -0.268 OA
BRANCH  11  13
ATOM     13  CA  GLY     2       8.471 -16.498   7.525  1.00  0.00     0.218 C 
BRANCH  13  14
ATOM     14  N   GLY     2       7.951 -17.796   8.018  1.00  0.00    -0.226 NA
ATOM     15  C   GLU     1       7.630 -17.990   9.303  1.00  0.00     0.289 C 
ATOM     16  O   GLU     1       7.594 -17.059  10.091  1.00  0.00    -0.268 OA
BRANCH  15  17
ATOM     17  CA  GLU     1       7.215 -19.413   9.762  1.00  0.00     0.381 C 
ATOM     18  N   GLU     1       7.607 -19.725  11.148  1.00  0.00     0.626 N 
BRANCH  17  19
ATOM     19  CB  GLU     1       5.694 -19.570   9.560  1.00  0.00     0.060 C 
BRANCH  19  20
ATOM     20  CG  GLU     1       5.169 -20.236   8.279  1.00  0.00     0.100 C 
BRANCH  20  21
ATOM     21  CD  GLU     1       3.634 -20.271   8.213  1.00  0.00     0.185 C 
ATOM     22  OE1 GLU     1       3.068 -19.640   7.303  1.00  0.00    -0.647 OA
ATOM     23  OE2 GLU     1       3.018 -20.903   9.089  1.00  0.00    -0.647 OA
ENDBRANCH  20  21
ENDBRANCH  19  20
ENDBRANCH  17  19
ENDBRANCH  15  17
ENDBRANCH  13  14
ENDBRANCH  11  13
ENDBRANCH   9  10
BRANCH   9  24
ATOM     24  CB  LEU     3      10.044 -14.592   3.737  1.00  0.00     0.034 C 
BRANCH  24  25
ATOM     25  CG  LEU     3       9.495 -15.392   2.542  1.00  0.00     0.002 C 
ATOM     26  CD1 LEU     3       9.060 -14.427   1.441  1.00  0.00     0.000 C 
ATOM     27  CD2 LEU     3      10.544 -16.368   1.999  1.00  0.00     0.000 C 
ENDBRANCH  24  25
ENDBRANCH   9  24
ENDBRANCH   7   9
ENDBRANCH   5   6
BRANCH   5  28
ATOM     28  CB  ASN     4      13.337 -11.638   5.771  1.00  0.00     0.126 C 
BRANCH  28  29
ATOM     29  CG  ASN     4      14.526 -11.357   4.833  1.00  0.00     0.276 C 
ATOM     30  ND2 ASN     4      15.528 -12.192   4.900  1.00  0.00    -0.107 N 
ATOM     31  OD1 ASN     4      14.546 -10.459   4.013  1.00  0.00    -0.269 OA
ENDBRANCH  28  29
ENDBRANCH   5  28
ENDBRANCH   3   5
ENDBRANCH   1   2
BRANCH   1  32
ATOM     32  CB  ARG     5      15.218 -10.702  10.042  1.00  0.00     0.036 C 
BRANCH  32  33
ATOM     33  CG  ARG     5      15.998 -10.396   8.762  1.00  0.00     0.029 C 
BRANCH  33  34
ATOM     34  CD  ARG     5      16.345  -8.911   8.723  1.00  0.00     0.145 C 
BRANCH  34  35
ATOM     35  NE  ARG     5      15.254  -8.102   8.129  1.00  0.00    -0.083 NA
ATOM     36  CZ  ARG     5      14.557  -7.160   8.782  1.00  0.00     0.782 C 
ATOM     37  NH2 ARG     5      13.760  -6.304   8.122  1.00  0.00     0.063 N 
ATOM     38  NH1 ARG     5      14.722  -6.957  10.081  1.00  0.00     0.063 N 
ENDBRANCH  34  35
ENDBRANCH  33  34
ENDBRANCH  32  33
ENDBRANCH   1  32
BRANCH   1  39
ATOM     39  C   ARG     5      12.723 -10.461  10.192  1.00  0.00     0.256 C 
ATOM     40  O   ARG     5      12.306  -9.631   9.379  1.00  0.00    -0.270 OA
ATOM     41  N   PRO     6      12.152 -10.660  11.383  1.00  0.00    -0.312 N 
ATOM     42  CA  PRO     6      11.057  -9.827  11.930  1.00  0.00     0.165 C 
ATOM     43  CD  PRO     6      12.397 -11.819  12.269  1.00  0.00     0.105 C 
ATOM     44  CB  PRO     6      10.815 -10.373  13.338  1.00  0.00     0.034 C 
ATOM     45  CG  PRO     6      11.185 -11.843  13.202  1.00  0.00     0.027 C 
BRANCH  42  46
ATOM     46  C   PRO     6      11.453  -8.342  11.978  1.00  0.00     0.272 C 
ATOM     47  N   SER     7      10.665  -7.439  11.409  1.00  0.00    -0.226 NA
ATOM     48  O   PRO     6      12.545  -8.008  12.447  1.00  0.00    -0.269 OA
BRANCH  47  49
ATOM     49  CA  SER     7       9.394  -7.698  10.690  1.00  0.00     0.219 C 
BRANCH  49  50
ATOM     50  C   SER     7       9.338  -6.964   9.339  1.00  0.00     0.277 C 
ATOM     51  O   SER     7       8.497  -7.297   8.510  1.00  0.00    -0.268 OA
ATOM     52  N   GLY     8      10.059  -5.855   9.253  1.00  0.00    -0.226 NA
BRANCH  52  53
ATOM     53  CA  GLY     8      10.275  -5.154   7.960  1.00  0.00     0.218 C 
BRANCH  53  54
ATOM     54  C   GLY     8       9.230  -4.115   7.513  1.00  0.00     0.277 C 
ATOM     55  N   GLY     9       9.304  -3.678   6.248  1.00  0.00    -0.226 NA
ATOM     56  O   GLY     8       8.356  -3.754   8.284  1.00  0.00    -0.268 OA
BRANCH  55  57
ATOM     57  CA  GLY     9       8.393  -2.655   5.694  1.00  0.00     0.218 C 
BRANCH  57  58
ATOM     58  C   GLY     9       9.166  -1.392   5.248  1.00  0.00     0.277 C 
ATOM     59  O   GLY     9       9.787  -1.409   4.193  1.00  0.00    -0.268 OA
ATOM     60  N   CYS    10       9.317  -0.346   6.049  1.00  0.00    -0.228 NA
BRANCH  60  61
ATOM     61  CA  CYS    10       8.848  -0.193   7.447  1.00  0.00     0.198 C 
BRANCH  61  62
ATOM     62  CB  CYS    10       9.906  -0.625   8.470  1.00  0.00     0.103 C 
ATOM     63  SG  CYS    10       9.386  -0.820  10.209  1.00  0.00    -0.080 SA
ENDBRANCH  61  62
BRANCH  61  64
ATOM     64  C   CYS    10       8.506   1.246   7.838  1.00  0.00     0.275 C 
ATOM     65  O   CYS    10       9.417   2.053   8.015  1.00  0.00    -0.268 OA
ATOM     66  N   GLY    11       7.237   1.567   7.642  1.00  0.00    -0.225 NA
BRANCH  66  67
ATOM     67  CA  GLY    11       6.540   2.518   8.520  1.00  0.00     0.226 C 
BRANCH  67  68
ATOM     68  C   GLY    11       5.943   1.652   9.640  1.00  0.00     0.211 C 
ATOM     69  O2  GLY    11       6.339   1.918  10.796  1.00  0.00    -0.646 OA
ATOM     70  O1  GLY    11       4.881   1.048   9.366  1.00  0.00    -0.646 OA
ENDBRANCH  67  68
ENDBRANCH  66  67
ENDBRANCH  61  64
ENDBRANCH  60  61
ENDBRANCH  57  58
ENDBRANCH  55  57
ENDBRANCH  53  54
ENDBRANCH  52  53
ENDBRANCH  49  50
BRANCH  49  71
ATOM     71  CB  SER     7       8.181  -7.244  11.506  1.00  0.00     0.216 C 
ATOM     72  OG  SER     7       7.998  -8.110  12.627  1.00  0.00    -0.218 OA
ENDBRANCH  49  71
ENDBRANCH  47  49
ENDBRANCH  42  46
ENDBRANCH   1  39
TORSDOF 33
ENDMDL
MODEL 3
REMARK VINA RESULT:      -5.6     14.096     18.039
REMARK WARNING: 32 MAX_TORS EXCEEDED!!!
REMARK  33 active torsions:
REMARK  status: ('A' for Active; 'I' for Inactive)
REMARK    1  A    between atoms: CA_2  and  C_8 
REMARK    2  A    between atoms: CA_2  and  CB_3 
REMARK    3  A    between atoms: CB_3  and  CG_4 
REMARK    4  A    between atoms: CG_4  and  CD_5 
REMARK       I    between atoms: C_8  and  N_10 
REMARK    5  A    between atoms: N_10  and  CA_11 
REMARK    6  A    between atoms: CA_11  and  C_12 
REMARK       I    between atoms: C_12  and  N_14 
REMARK    7  A    between atoms: N_14  and  CA_15 
REMARK    8  A    between atoms: CA_15  and  C_20 
REMARK    9  A    between atoms: CA_15  and  CB_16 
REMARK   10  A    between atoms: CB_16  and  CG_17 
REMARK       I    between atoms: C_20  and  N_22 
REMARK   11  A    between atoms: N_22  and  CA_23 
REMARK   12  A    between atoms: CA_23  and  CB_24 
REMARK   13  A    between atoms: CA_23  and  C_28 
REMARK   14  A    between atoms: CB_24  and  CG_25 
REMARK       I    between atoms: C_28  and  N_30 
REMARK   15  A    between atoms: N_30  and  CA_31 
REMARK   16  A    between atoms: CA_31  and  CB_32 
REMARK   17  A    between atoms: CA_31  and  C_39 
REMARK   18  A    between atoms: CB_32  and  CG_33 
REMARK   19  A    between atoms: CG_33  and  CD_34 
REMARK   20  A    between atoms: CD_34  and  NE_35 
REMARK       I    between atoms: C_39  and  N_41 
REMARK   21  A    between atoms: CA_42  and  C_46 
REMARK       I    between atoms: C_46  and  N_48 
REMARK   22  A    between atoms: N_48  and  CA_49 
REMARK   23  A    between atoms: CA_49  and  C_52 
REMARK   24  A    between atoms: CA_49  and  CB_50 
REMARK       I    between atoms: C_52  and  N_54 
REMARK   25  A    between atoms: N_54  and  CA_55 
REMARK   26  A    between atoms: CA_55  and  C_56 
REMARK       I    between atoms: C_56  and  N_58 
REMARK   27  A    between atoms: N_58  and  CA_59 
REMARK   28  A    between atoms: CA_59  and  C_60 
REMARK       I    between atoms: C_60  and  N_62 
REMARK   29  A    between atoms: N_62  and  CA_63 
REMARK   30  A    between atoms: CA_63  and  CB_64 
REMARK   31  A    between atoms: CA_63  and  C_66 
REMARK       I    between atoms: C_66  and  N_68 
REMARK   32  A    between atoms: N_68  and  CA_69 
REMARK   33  A    between atoms: CA_69  and  C_70 
ROOT
ATOM      1  CA  ARG     5       6.652 -19.731   8.589  1.00  0.00     0.185 C 
ENDROOT
BRANCH   1   2
ATOM      2  N   ARG     5       7.214 -19.870   7.232  1.00  0.00    -0.229 NA
ATOM      3  C   ASN     4       8.057 -20.811   6.838  1.00  0.00     0.275 C 
ATOM      4  O   ASN     4       8.681 -21.542   7.602  1.00  0.00    -0.268 OA
BRANCH   3   5
ATOM      5  CA  ASN     4       8.442 -20.681   5.350  1.00  0.00     0.196 C 
BRANCH   5   6
ATOM      6  N   ASN     4       8.849 -19.295   5.035  1.00  0.00    -0.228 NA
ATOM      7  C   LEU     3       8.303 -18.581   4.054  1.00  0.00     0.274 C 
ATOM      8  O   LEU     3       7.402 -18.976   3.308  1.00  0.00    -0.268 OA
BRANCH   7   9
ATOM      9  CA  LEU     3       8.828 -17.151   3.929  1.00  0.00     0.186 C 
BRANCH   9  10
ATOM     10  N   LEU     3       9.782 -16.876   5.027  1.00  0.00    -0.229 NA
ATOM     11  C   GLY     2       9.443 -16.206   6.132  1.00  0.00     0.277 C 
ATOM     12  O   GLY     2       8.292 -15.899   6.402  1.00  0.00    -0.268 OA
BRANCH  11  13
ATOM     13  CA  GLY     2      10.573 -15.976   7.158  1.00  0.00     0.218 C 
BRANCH  13  14
ATOM     14  N   GLY     2      11.666 -15.042   6.796  1.00  0.00    -0.226 NA
ATOM     15  C   GLU     1      12.779 -14.934   7.530  1.00  0.00     0.289 C 
ATOM     16  O   GLU     1      13.016 -15.717   8.435  1.00  0.00    -0.268 OA
BRANCH  15  17
ATOM     17  CA  GLU     1      13.817 -13.842   7.156  1.00  0.00     0.381 C 
ATOM     18  N   GLU     1      14.950 -14.349   6.361  1.00  0.00     0.626 N 
BRANCH  17  19
ATOM     19  CB  GLU     1      13.085 -12.700   6.422  1.00  0.00     0.060 C 
BRANCH  19  20
ATOM     20  CG  GLU     1      13.558 -12.277   5.023  1.00  0.00     0.100 C 
BRANCH  20  21
ATOM     21  CD  GLU     1      14.111 -10.844   4.989  1.00  0.00     0.185 C 
ATOM     22  OE1 GLU     1      14.575 -10.415   3.918  1.00  0.00    -0.647 OA
ATOM     23  OE2 GLU     1      14.101 -10.181   6.041  1.00  0.00    -0.647 OA
ENDBRANCH  20  21
ENDBRANCH  19  20
ENDBRANCH  17  19
ENDBRANCH  15  17
ENDBRANCH  13  14
ENDBRANCH  11  13
ENDBRANCH   9  10
BRANCH   9  24
ATOM     24  CB  LEU     3       9.517 -16.995   2.568  1.00  0.00     0.034 C 
BRANCH  24  25
ATOM     25  CG  LEU     3       8.680 -16.222   1.533  1.00  0.00     0.002 C 
ATOM     26  CD1 LEU     3       9.313 -14.854   1.287  1.00  0.00     0.000 C 
ATOM     27  CD2 LEU     3       8.574 -16.996   0.215  1.00  0.00     0.000 C 
ENDBRANCH  24  25
ENDBRANCH   9  24
ENDBRANCH   7   9
ENDBRANCH   5   6
BRANCH   5  28
ATOM     28  CB  ASN     4       9.563 -21.664   4.969  1.00  0.00     0.126 C 
BRANCH  28  29
ATOM     29  CG  ASN     4       9.053 -22.958   4.307  1.00  0.00     0.276 C 
ATOM     30  ND2 ASN     4       9.797 -24.021   4.462  1.00  0.00    -0.107 N 
ATOM     31  OD1 ASN     4       7.991 -23.048   3.721  1.00  0.00    -0.269 OA
ENDBRANCH  28  29
ENDBRANCH   5  28
ENDBRANCH   3   5
ENDBRANCH   1   2
BRANCH   1  32
ATOM     32  CB  ARG     5       6.991 -18.355   9.173  1.00  0.00     0.036 C 
BRANCH  32  33
ATOM     33  CG  ARG     5       7.301 -18.378  10.670  1.00  0.00     0.029 C 
BRANCH  33  34
ATOM     34  CD  ARG     5       8.286 -19.503  10.968  1.00  0.00     0.145 C 
BRANCH  34  35
ATOM     35  NE  ARG     5       9.620 -18.983  11.357  1.00  0.00    -0.083 NA
ATOM     36  CZ  ARG     5      10.619 -18.722  10.501  1.00  0.00     0.782 C 
ATOM     37  NH2 ARG     5      11.701 -18.028  10.890  1.00  0.00     0.063 N 
ATOM     38  NH1 ARG     5      10.522 -19.025   9.215  1.00  0.00     0.063 N 
ENDBRANCH  34  35
ENDBRANCH  33  34
ENDBRANCH  32  33
ENDBRANCH   1  32
BRANCH   1  39
ATOM     39  C   ARG     5       5.123 -19.906   8.534  1.00  0.00     0.256 C 
ATOM     40  O   ARG     5       4.444 -19.145   7.838  1.00  0.00    -0.270 OA
ATOM     41  N   PRO     6       4.605 -20.957   9.175  1.00  0.00    -0.312 N 
ATOM     42  CA  PRO     6       3.157 -21.253   9.252  1.00  0.00     0.165 C 
ATOM     43  CD  PRO     6       5.381 -22.069   9.767  1.00  0.00     0.105 C 
ATOM     44  CB  PRO     6       3.055 -22.478  10.163  1.00  0.00     0.034 C 
ATOM     45  CG  PRO     6       4.366 -23.205   9.905  1.00  0.00     0.027 C 
BRANCH  42  46
ATOM     46  C   PRO     6       2.372 -20.067   9.837  1.00  0.00     0.272 C 
ATOM     47  N   SER     7       1.455 -19.463   9.093  1.00  0.00    -0.226 NA
ATOM     48  O   PRO     6       2.669 -19.618  10.948  1.00  0.00    -0.269 OA
BRANCH  47  49
ATOM     49  CA  SER     7       1.082 -19.799   7.698  1.00  0.00     0.219 C 
BRANCH  49  50
ATOM     50  C   SER     7       0.707 -18.547   6.885  1.00  0.00     0.277 C 
ATOM     51  O   SER     7       1.457 -18.164   5.994  1.00  0.00    -0.268 OA
ATOM     52  N   GLY     8      -0.530 -18.100   7.051  1.00  0.00    -0.226 NA
BRANCH  52  53
ATOM     53  CA  GLY     8      -0.975 -16.791   6.504  1.00  0.00     0.218 C 
BRANCH  53  54
ATOM     54  C   GLY     8      -2.103 -16.043   7.237  1.00  0.00     0.277 C 
ATOM     55  N   GLY     9      -3.229 -16.726   7.486  1.00  0.00    -0.226 NA
ATOM     56  O   GLY     8      -1.937 -14.891   7.602  1.00  0.00    -0.268 OA
BRANCH  55  57
ATOM     57  CA  GLY     9      -4.407 -16.126   8.145  1.00  0.00     0.218 C 
BRANCH  57  58
ATOM     58  C   GLY     9      -5.262 -15.312   7.144  1.00  0.00     0.277 C 
ATOM     59  O   GLY     9      -5.200 -14.089   7.158  1.00  0.00    -0.268 OA
ATOM     60  N   CYS    10      -6.183 -15.886   6.384  1.00  0.00    -0.228 NA
BRANCH  60  61
ATOM     61  CA  CYS    10      -6.588 -17.313   6.363  1.00  0.00     0.198 C 
BRANCH  61  62
ATOM     62  CB  CYS    10      -8.089 -17.499   6.614  1.00  0.00     0.103 C 
ATOM     63  SG  CYS    10      -9.137 -16.005   6.677  1.00  0.00    -0.080 SA
ENDBRANCH  61  62
BRANCH  61  64
ATOM     64  C   CYS    10      -6.336 -18.014   5.026  1.00  0.00     0.275 C 
ATOM     65  O   CYS    10      -7.089 -17.790   4.079  1.00  0.00    -0.268 OA
ATOM     66  N   GLY    11      -5.135 -18.560   4.926  1.00  0.00    -0.225 NA
BRANCH  66  67
ATOM     67  CA  GLY    11      -4.912 -19.791   4.155  1.00  0.00     0.226 C 
BRANCH  67  68
ATOM     68  C   GLY    11      -4.565 -20.856   5.207  1.00  0.00     0.211 C 
ATOM     69  O2  GLY    11      -5.539 -21.464   5.701  1.00  0.00    -0.646 OA
ATOM     70  O1  GLY    11      -3.384 -21.274   5.202  1.00  0.00    -0.646 OA
ENDBRANCH  67  68
ENDBRANCH  66  67
ENDBRANCH  61  64
ENDBRANCH  60  61
ENDBRANCH  57  58
ENDBRANCH  55  57
ENDBRANCH  53  54
ENDBRANCH  52  53
ENDBRANCH  49  50
BRANCH  49  71
ATOM     71  CB  SER     7      -0.115 -20.751   7.647  1.00  0.00     0.216 C 
ATOM     72  OG  SER     7      -0.116 -21.465   6.410  1.00  0.00    -0.218 OA
ENDBRANCH  49  71
ENDBRANCH  47  49
ENDBRANCH  42  46
ENDBRANCH   1  39
TORSDOF 33
ENDMDL
MODEL 4
REMARK VINA RESULT:      -5.5      4.264     12.282
REMARK WARNING: 32 MAX_TORS EXCEEDED!!!
REMARK  33 active torsions:
REMARK  status: ('A' for Active; 'I' for Inactive)
REMARK    1  A    between atoms: CA_2  and  C_8 
REMARK    2  A    between atoms: CA_2  and  CB_3 
REMARK    3  A    between atoms: CB_3  and  CG_4 
REMARK    4  A    between atoms: CG_4  and  CD_5 
REMARK       I    between atoms: C_8  and  N_10 
REMARK    5  A    between atoms: N_10  and  CA_11 
REMARK    6  A    between atoms: CA_11  and  C_12 
REMARK       I    between atoms: C_12  and  N_14 
REMARK    7  A    between atoms: N_14  and  CA_15 
REMARK    8  A    between atoms: CA_15  and  C_20 
REMARK    9  A    between atoms: CA_15  and  CB_16 
REMARK   10  A    between atoms: CB_16  and  CG_17 
REMARK       I    between atoms: C_20  and  N_22 
REMARK   11  A    between atoms: N_22  and  CA_23 
REMARK   12  A    between atoms: CA_23  and  CB_24 
REMARK   13  A    between atoms: CA_23  and  C_28 
REMARK   14  A    between atoms: CB_24  and  CG_25 
REMARK       I    between atoms: C_28  and  N_30 
REMARK   15  A    between atoms: N_30  and  CA_31 
REMARK   16  A    between atoms: CA_31  and  CB_32 
REMARK   17  A    between atoms: CA_31  and  C_39 
REMARK   18  A    between atoms: CB_32  and  CG_33 
REMARK   19  A    between atoms: CG_33  and  CD_34 
REMARK   20  A    between atoms: CD_34  and  NE_35 
REMARK       I    between atoms: C_39  and  N_41 
REMARK   21  A    between atoms: CA_42  and  C_46 
REMARK       I    between atoms: C_46  and  N_48 
REMARK   22  A    between atoms: N_48  and  CA_49 
REMARK   23  A    between atoms: CA_49  and  C_52 
REMARK   24  A    between atoms: CA_49  and  CB_50 
REMARK       I    between atoms: C_52  and  N_54 
REMARK   25  A    between atoms: N_54  and  CA_55 
REMARK   26  A    between atoms: CA_55  and  C_56 
REMARK       I    between atoms: C_56  and  N_58 
REMARK   27  A    between atoms: N_58  and  CA_59 
REMARK   28  A    between atoms: CA_59  and  C_60 
REMARK       I    between atoms: C_60  and  N_62 
REMARK   29  A    between atoms: N_62  and  CA_63 
REMARK   30  A    between atoms: CA_63  and  CB_64 
REMARK   31  A    between atoms: CA_63  and  C_66 
REMARK       I    between atoms: C_66  and  N_68 
REMARK   32  A    between atoms: N_68  and  CA_69 
REMARK   33  A    between atoms: CA_69  and  C_70 
ROOT
ATOM      1  CA  ARG     5      -4.435   0.788  11.036  1.00  0.00     0.185 C 
ENDROOT
BRANCH   1   2
ATOM      2  N   ARG     5      -5.334  -0.340  10.730  1.00  0.00    -0.229 NA
ATOM      3  C   ASN     4      -6.377  -0.297   9.916  1.00  0.00     0.275 C 
ATOM      4  O   ASN     4      -6.887   0.739   9.502  1.00  0.00    -0.268 OA
BRANCH   3   5
ATOM      5  CA  ASN     4      -7.101  -1.655   9.804  1.00  0.00     0.196 C 
BRANCH   5   6
ATOM      6  N   ASN     4      -7.722  -1.807   8.471  1.00  0.00    -0.228 NA
ATOM      7  C   LEU     3      -7.025  -2.064   7.367  1.00  0.00     0.274 C 
ATOM      8  O   LEU     3      -5.800  -2.212   7.322  1.00  0.00    -0.268 OA
BRANCH   7   9
ATOM      9  CA  LEU     3      -7.864  -2.238   6.102  1.00  0.00     0.186 C 
BRANCH   9  10
ATOM     10  N   LEU     3      -9.125  -2.936   6.435  1.00  0.00    -0.229 NA
ATOM     11  C   GLY     2      -9.635  -3.913   5.679  1.00  0.00     0.277 C 
ATOM     12  O   GLY     2      -9.034  -4.418   4.743  1.00  0.00    -0.268 OA
BRANCH  11  13
ATOM     13  CA  GLY     2     -10.978  -4.505   6.155  1.00  0.00     0.218 C 
BRANCH  13  14
ATOM     14  N   GLY     2     -10.947  -5.754   6.954  1.00  0.00    -0.226 NA
ATOM     15  C   GLU     1     -10.905  -6.962   6.380  1.00  0.00     0.289 C 
ATOM     16  O   GLU     1     -10.722  -7.084   5.180  1.00  0.00    -0.268 OA
BRANCH  15  17
ATOM     17  CA  GLU     1     -11.005  -8.221   7.283  1.00  0.00     0.381 C 
ATOM     18  N   GLU     1     -10.439  -9.436   6.669  1.00  0.00     0.626 N 
BRANCH  17  19
ATOM     19  CB  GLU     1     -10.331  -7.910   8.635  1.00  0.00     0.060 C 
BRANCH  19  20
ATOM     20  CG  GLU     1      -8.834  -7.566   8.669  1.00  0.00     0.100 C 
BRANCH  20  21
ATOM     21  CD  GLU     1      -8.542  -6.256   9.417  1.00  0.00     0.185 C 
ATOM     22  OE1 GLU     1      -8.742  -6.218  10.644  1.00  0.00    -0.647 OA
ATOM     23  OE2 GLU     1      -8.147  -5.276   8.761  1.00  0.00    -0.647 OA
ENDBRANCH  20  21
ENDBRANCH  19  20
ENDBRANCH  17  19
ENDBRANCH  15  17
ENDBRANCH  13  14
ENDBRANCH  11  13
ENDBRANCH   9  10
BRANCH   9  24
ATOM     24  CB  LEU     3      -8.156  -0.853   5.510  1.00  0.00     0.034 C 
BRANCH  24  25
ATOM     25  CG  LEU     3      -7.374  -0.551   4.219  1.00  0.00     0.002 C 
ATOM     26  CD1 LEU     3      -6.108   0.232   4.563  1.00  0.00     0.000 C 
ATOM     27  CD2 LEU     3      -7.007  -1.841   3.478  1.00  0.00     0.000 C 
ENDBRANCH  24  25
ENDBRANCH   9  24
ENDBRANCH   7   9
ENDBRANCH   5   6
BRANCH   5  28
ATOM     28  CB  ASN     4      -6.145  -2.828  10.082  1.00  0.00     0.126 C 
BRANCH  28  29
ATOM     29  CG  ASN     4      -6.485  -3.614  11.363  1.00  0.00     0.276 C 
ATOM     30  ND2 ASN     4      -7.417  -3.106  12.125  1.00  0.00    -0.107 N 
ATOM     31  OD1 ASN     4      -5.986  -4.684  11.655  1.00  0.00    -0.269 OA
ENDBRANCH  28  29
ENDBRANCH   5  28
ENDBRANCH   3   5
ENDBRANCH   1   2
BRANCH   1  32
ATOM     32  CB  ARG     5      -4.614   1.240  12.489  1.00  0.00     0.036 C 
BRANCH  32  33
ATOM     33  CG  ARG     5      -5.614   2.385  12.663  1.00  0.00     0.029 C 
BRANCH  33  34
ATOM     34  CD  ARG     5      -4.859   3.677  12.956  1.00  0.00     0.145 C 
BRANCH  34  35
ATOM     35  NE  ARG     5      -5.607   4.873  12.498  1.00  0.00    -0.083 NA
ATOM     36  CZ  ARG     5      -5.059   6.073  12.257  1.00  0.00     0.782 C 
ATOM     37  NH2 ARG     5      -5.745   7.033  11.615  1.00  0.00     0.063 N 
ATOM     38  NH1 ARG     5      -3.785   6.317  12.529  1.00  0.00     0.063 N 
ENDBRANCH  34  35
ENDBRANCH  33  34
ENDBRANCH  32  33
ENDBRANCH   1  32
BRANCH   1  39
ATOM     39  C   ARG     5      -2.974   0.360  10.805  1.00  0.00     0.256 C 
ATOM     40  O   ARG     5      -2.384  -0.296  11.669  1.00  0.00    -0.270 OA
ATOM     41  N   PRO     6      -2.437   0.639   9.614  1.00  0.00    -0.312 N 
ATOM     42  CA  PRO     6      -1.038   0.329   9.239  1.00  0.00     0.165 C 
ATOM     43  CD  PRO     6      -3.176   1.145   8.436  1.00  0.00     0.105 C 
ATOM     44  CB  PRO     6      -0.867   0.921   7.839  1.00  0.00     0.034 C 
ATOM     45  CG  PRO     6      -2.267   0.815   7.251  1.00  0.00     0.027 C 
BRANCH  42  46
ATOM     46  C   PRO     6      -0.041   0.958  10.226  1.00  0.00     0.272 C 
ATOM     47  N   SER     7       0.772   0.172  10.920  1.00  0.00    -0.226 NA
ATOM     48  O   PRO     6      -0.073   2.172  10.448  1.00  0.00    -0.269 OA
BRANCH  47  49
ATOM     49  CA  SER     7       0.835  -1.309  10.865  1.00  0.00     0.219 C 
BRANCH  49  50
ATOM     50  C   SER     7       0.711  -1.942  12.262  1.00  0.00     0.277 C 
ATOM     51  O   SER     7       0.728  -1.220  13.252  1.00  0.00    -0.268 OA
ATOM     52  N   GLY     8       0.355  -3.220  12.287  1.00  0.00    -0.226 NA
BRANCH  52  53
ATOM     53  CA  GLY     8       0.398  -4.024  13.536  1.00  0.00     0.218 C 
BRANCH  53  54
ATOM     54  C   GLY     8       1.388  -5.200  13.609  1.00  0.00     0.277 C 
ATOM     55  N   GLY     9       2.686  -4.919  13.427  1.00  0.00    -0.226 NA
ATOM     56  O   GLY     8       0.988  -6.324  13.867  1.00  0.00    -0.268 OA
BRANCH  55  57
ATOM     57  CA  GLY     9       3.743  -5.952  13.431  1.00  0.00     0.218 C 
BRANCH  57  58
ATOM     58  C   GLY     9       3.634  -6.878  12.197  1.00  0.00     0.277 C 
ATOM     59  O   GLY     9       3.309  -8.049  12.352  1.00  0.00    -0.268 OA
ATOM     60  N   CYS    10       4.040  -6.493  10.996  1.00  0.00    -0.228 NA
BRANCH  60  61
ATOM     61  CA  CYS    10       4.675  -5.207  10.617  1.00  0.00     0.198 C 
BRANCH  61  62
ATOM     62  CB  CYS    10       6.194  -5.329  10.455  1.00  0.00     0.103 C 
ATOM     63  SG  CYS    10       6.830  -6.515   9.221  1.00  0.00    -0.080 SA
ENDBRANCH  61  62
BRANCH  61  64
ATOM     64  C   CYS    10       4.193  -4.642   9.279  1.00  0.00     0.275 C 
ATOM     65  O   CYS    10       4.785  -3.685   8.782  1.00  0.00    -0.268 OA
ATOM     66  N   GLY    11       3.369  -5.445   8.625  1.00  0.00    -0.225 NA
BRANCH  66  67
ATOM     67  CA  GLY    11       2.290  -4.916   7.780  1.00  0.00     0.226 C 
BRANCH  67  68
ATOM     68  C   GLY    11       0.998  -5.471   8.400  1.00  0.00     0.211 C 
ATOM     69  O2  GLY    11       0.768  -5.114   9.575  1.00  0.00    -0.646 OA
ATOM     70  O1  GLY    11       0.136  -5.895   7.596  1.00  0.00    -0.646 OA
ENDBRANCH  67  68
ENDBRANCH  66  67
ENDBRANCH  61  64
ENDBRANCH  60  61
ENDBRANCH  57  58
ENDBRANCH  55  57
ENDBRANCH  53  54
ENDBRANCH  52  53
ENDBRANCH  49  50
BRANCH  49  71
ATOM     71  CB  SER     7       2.153  -1.797  10.258  1.00  0.00     0.216 C 
ATOM     72  OG  SER     7       2.176  -1.520   8.858  1.00  0.00    -0.218 OA
ENDBRANCH  49  71
ENDBRANCH  47  49
ENDBRANCH  42  46
ENDBRANCH   1  39
TORSDOF 33
ENDMDL
MODEL 5
REMARK VINA RESULT:      -5.4     11.994     20.152
REMARK WARNING: 32 MAX_TORS EXCEEDED!!!
REMARK  33 active torsions:
REMARK  status: ('A' for Active; 'I' for Inactive)
REMARK    1  A    between atoms: CA_2  and  C_8 
REMARK    2  A    between atoms: CA_2  and  CB_3 
REMARK    3  A    between atoms: CB_3  and  CG_4 
REMARK    4  A    between atoms: CG_4  and  CD_5 
REMARK       I    between atoms: C_8  and  N_10 
REMARK    5  A    between atoms: N_10  and  CA_11 
REMARK    6  A    between atoms: CA_11  and  C_12 
REMARK       I    between atoms: C_12  and  N_14 
REMARK    7  A    between atoms: N_14  and  CA_15 
REMARK    8  A    between atoms: CA_15  and  C_20 
REMARK    9  A    between atoms: CA_15  and  CB_16 
REMARK   10  A    between atoms: CB_16  and  CG_17 
REMARK       I    between atoms: C_20  and  N_22 
REMARK   11  A    between atoms: N_22  and  CA_23 
REMARK   12  A    between atoms: CA_23  and  CB_24 
REMARK   13  A    between atoms: CA_23  and  C_28 
REMARK   14  A    between atoms: CB_24  and  CG_25 
REMARK       I    between atoms: C_28  and  N_30 
REMARK   15  A    between atoms: N_30  and  CA_31 
REMARK   16  A    between atoms: CA_31  and  CB_32 
REMARK   17  A    between atoms: CA_31  and  C_39 
REMARK   18  A    between atoms: CB_32  and  CG_33 
REMARK   19  A    between atoms: CG_33  and  CD_34 
REMARK   20  A    between atoms: CD_34  and  NE_35 
REMARK       I    between atoms: C_39  and  N_41 
REMARK   21  A    between atoms: CA_42  and  C_46 
REMARK       I    between atoms: C_46  and  N_48 
REMARK   22  A    between atoms: N_48  and  CA_49 
REMARK   23  A    between atoms: CA_49  and  C_52 
REMARK   24  A    between atoms: CA_49  and  CB_50 
REMARK       I    between atoms: C_52  and  N_54 
REMARK   25  A    between atoms: N_54  and  CA_55 
REMARK   26  A    between atoms: CA_55  and  C_56 
REMARK       I    between atoms: C_56  and  N_58 
REMARK   27  A    between atoms: N_58  and  CA_59 
REMARK   28  A    between atoms: CA_59  and  C_60 
REMARK       I    between atoms: C_60  and  N_62 
REMARK   29  A    between atoms: N_62  and  CA_63 
REMARK   30  A    between atoms: CA_63  and  CB_64 
REMARK   31  A    between atoms: CA_63  and  C_66 
REMARK       I    between atoms: C_66  and  N_68 
REMARK   32  A    between atoms: N_68  and  CA_69 
REMARK   33  A    between atoms: CA_69  and  C_70 
ROOT
ATOM      1  CA  ARG     5     -10.078 -16.208   5.997  1.00  0.00     0.185 C 
ENDROOT
BRANCH   1   2
ATOM      2  N   ARG     5     -10.076 -15.055   5.078  1.00  0.00    -0.229 NA
ATOM      3  C   ASN     4     -10.816 -13.965   5.206  1.00  0.00     0.275 C 
ATOM      4  O   ASN     4     -11.780 -13.870   5.959  1.00  0.00    -0.268 OA
BRANCH   3   5
ATOM      5  CA  ASN     4     -10.565 -12.940   4.081  1.00  0.00     0.196 C 
BRANCH   5   6
ATOM      6  N   ASN     4      -9.884 -11.739   4.610  1.00  0.00    -0.228 NA
ATOM      7  C   LEU     3     -10.532 -10.637   4.979  1.00  0.00     0.274 C 
ATOM      8  O   LEU     3     -11.756 -10.487   4.933  1.00  0.00    -0.268 OA
BRANCH   7   9
ATOM      9  CA  LEU     3      -9.646  -9.530   5.549  1.00  0.00     0.186 C 
BRANCH   9  10
ATOM     10  N   LEU     3      -9.531  -8.430   4.565  1.00  0.00    -0.229 NA
ATOM     11  C   GLY     2      -8.499  -8.315   3.725  1.00  0.00     0.277 C 
ATOM     12  O   GLY     2      -7.647  -9.180   3.587  1.00  0.00    -0.268 OA
BRANCH  11  13
ATOM     13  CA  GLY     2      -8.521  -7.086   2.791  1.00  0.00     0.218 C 
BRANCH  13  14
ATOM     14  N   GLY     2      -9.227  -5.868   3.256  1.00  0.00    -0.226 NA
ATOM     15  C   GLU     1      -8.751  -4.640   3.023  1.00  0.00     0.289 C 
ATOM     16  O   GLU     1      -7.803  -4.462   2.276  1.00  0.00    -0.268 OA
BRANCH  15  17
ATOM     17  CA  GLU     1      -9.482  -3.424   3.654  1.00  0.00     0.381 C 
ATOM     18  N   GLU     1      -9.567  -3.482   5.124  1.00  0.00     0.626 N 
BRANCH  17  19
ATOM     19  CB  GLU     1      -8.783  -2.133   3.184  1.00  0.00     0.060 C 
BRANCH  19  20
ATOM     20  CG  GLU     1      -7.924  -1.336   4.178  1.00  0.00     0.100 C 
BRANCH  20  21
ATOM     21  CD  GLU     1      -6.418  -1.476   3.909  1.00  0.00     0.185 C 
ATOM     22  OE1 GLU     1      -6.048  -1.763   2.756  1.00  0.00    -0.647 OA
ATOM     23  OE2 GLU     1      -5.630  -1.328   4.860  1.00  0.00    -0.647 OA
ENDBRANCH  20  21
ENDBRANCH  19  20
ENDBRANCH  17  19
ENDBRANCH  15  17
ENDBRANCH  13  14
ENDBRANCH  11  13
ENDBRANCH   9  10
BRANCH   9  24
ATOM     24  CB  LEU     3     -10.273  -9.020   6.853  1.00  0.00     0.034 C 
BRANCH  24  25
ATOM     25  CG  LEU     3      -9.785  -7.622   7.273  1.00  0.00     0.002 C 
ATOM     26  CD1 LEU     3     -10.978  -6.673   7.364  1.00  0.00     0.000 C 
ATOM     27  CD2 LEU     3      -9.049  -7.671   8.616  1.00  0.00     0.000 C 
ENDBRANCH  24  25
ENDBRANCH   9  24
ENDBRANCH   7   9
ENDBRANCH   5   6
BRANCH   5  28
ATOM     28  CB  ASN     4      -9.746 -13.553   2.932  1.00  0.00     0.126 C 
BRANCH  28  29
ATOM     29  CG  ASN     4     -10.599 -14.323   1.906  1.00  0.00     0.276 C 
ATOM     30  ND2 ASN     4     -11.506 -13.631   1.270  1.00  0.00    -0.107 N 
ATOM     31  OD1 ASN     4     -10.427 -15.493   1.623  1.00  0.00    -0.269 OA
ENDBRANCH  28  29
ENDBRANCH   5  28
ENDBRANCH   3   5
ENDBRANCH   1   2
BRANCH   1  32
ATOM     32  CB  ARG     5      -9.750 -17.500   5.240  1.00  0.00     0.036 C 
BRANCH  32  33
ATOM     33  CG  ARG     5     -10.932 -18.076   4.458  1.00  0.00     0.029 C 
BRANCH  33  34
ATOM     34  CD  ARG     5     -12.226 -17.799   5.217  1.00  0.00     0.145 C 
BRANCH  34  35
ATOM     35  NE  ARG     5     -13.421 -17.979   4.359  1.00  0.00    -0.083 NA
ATOM     36  CZ  ARG     5     -13.970 -17.019   3.600  1.00  0.00     0.782 C 
ATOM     37  NH2 ARG     5     -14.892 -17.313   2.668  1.00  0.00     0.063 N 
ATOM     38  NH1 ARG     5     -13.537 -15.767   3.650  1.00  0.00     0.063 N 
ENDBRANCH  34  35
ENDBRANCH  33  34
ENDBRANCH  32  33
ENDBRANCH   1  32
BRANCH   1  39
ATOM     39  C   ARG     5      -9.035 -15.983   7.108  1.00  0.00     0.256 C 
ATOM     40  O   ARG     5      -7.871 -15.703   6.808  1.00  0.00    -0.270 OA
ATOM     41  N   PRO     6      -9.474 -16.002   8.371  1.00  0.00    -0.312 N 
ATOM     42  CA  PRO     6      -8.602 -15.838   9.556  1.00  0.00     0.165 C 
ATOM     43  CD  PRO     6     -10.893 -16.026   8.785  1.00  0.00     0.105 C 
ATOM     44  CB  PRO     6      -9.531 -16.033  10.755  1.00  0.00     0.034 C 
ATOM     45  CG  PRO     6     -10.871 -15.534  10.233  1.00  0.00     0.027 C 
BRANCH  42  46
ATOM     46  C   PRO     6      -7.467 -16.875   9.566  1.00  0.00     0.272 C 
ATOM     47  N   SER     7      -6.208 -16.462   9.546  1.00  0.00    -0.226 NA
ATOM     48  O   PRO     6      -7.730 -18.079   9.485  1.00  0.00    -0.269 OA
BRANCH  47  49
ATOM     49  CA  SER     7      -5.735 -15.058   9.505  1.00  0.00     0.219 C 
BRANCH  49  50
ATOM     50  C   SER     7      -4.770 -14.810   8.332  1.00  0.00     0.277 C 
ATOM     51  O   SER     7      -5.077 -14.002   7.462  1.00  0.00    -0.268 OA
ATOM     52  N   GLY     8      -3.554 -15.320   8.467  1.00  0.00    -0.226 NA
BRANCH  52  53
ATOM     53  CA  GLY     8      -2.582 -15.349   7.342  1.00  0.00     0.218 C 
BRANCH  53  54
ATOM     54  C   GLY     8      -1.485 -16.428   7.357  1.00  0.00     0.277 C 
ATOM     55  N   GLY     9      -0.947 -16.771   6.178  1.00  0.00    -0.226 NA
ATOM     56  O   GLY     8      -1.107 -16.904   8.415  1.00  0.00    -0.268 OA
BRANCH  55  57
ATOM     57  CA  GLY     9       0.086 -17.817   6.036  1.00  0.00     0.218 C 
BRANCH  57  58
ATOM     58  C   GLY     9      -0.540 -19.185   5.674  1.00  0.00     0.277 C 
ATOM     59  O   GLY     9      -1.497 -19.224   4.911  1.00  0.00    -0.268 OA
ATOM     60  N   CYS    10      -0.183 -20.303   6.291  1.00  0.00    -0.228 NA
BRANCH  60  61
ATOM     61  CA  CYS    10       0.789 -20.461   7.400  1.00  0.00     0.198 C 
BRANCH  61  62
ATOM     62  CB  CYS    10       0.574 -21.762   8.184  1.00  0.00     0.103 C 
ATOM     63  SG  CYS    10      -0.120 -21.641   9.868  1.00  0.00    -0.080 SA
ENDBRANCH  61  62
BRANCH  61  64
ATOM     64  C   CYS    10       2.249 -20.525   6.948  1.00  0.00     0.275 C 
ATOM     65  O   CYS    10       2.514 -20.974   5.834  1.00  0.00    -0.268 OA
ATOM     66  N   GLY    11       3.070 -19.795   7.684  1.00  0.00    -0.225 NA
BRANCH  66  67
ATOM     67  CA  GLY    11       4.461 -20.205   7.922  1.00  0.00     0.226 C 
BRANCH  67  68
ATOM     68  C   GLY    11       4.391 -21.142   9.139  1.00  0.00     0.211 C 
ATOM     69  O2  GLY    11       4.604 -22.350   8.901  1.00  0.00    -0.646 OA
ATOM     70  O1  GLY    11       4.505 -20.599  10.262  1.00  0.00    -0.646 OA
ENDBRANCH  67  68
ENDBRANCH  66  67
ENDBRANCH  61  64
ENDBRANCH  60  61
ENDBRANCH  57  58
ENDBRANCH  55  57
ENDBRANCH  53  54
ENDBRANCH  52  53
ENDBRANCH  49  50
BRANCH  49  71
ATOM     71  CB  SER     7      -4.999 -14.670  10.789  1.00  0.00     0.216 C 
ATOM     72  OG  SER     7      -5.935 -14.210  11.765  1.00  0.00    -0.218 OA
ENDBRANCH  49  71
ENDBRANCH  47  49
ENDBRANCH  42  46
ENDBRANCH   1  39
TORSDOF 33
ENDMDL
MODEL 6
REMARK VINA RESULT:      -5.4      5.268     13.889
REMARK WARNING: 32 MAX_TORS EXCEEDED!!!
REMARK  33 active torsions:
REMARK  status: ('A' for Active; 'I' for Inactive)
REMARK    1  A    between atoms: CA_2  and  C_8 
REMARK    2  A    between atoms: CA_2  and  CB_3 
REMARK    3  A    between atoms: CB_3  and  CG_4 
REMARK    4  A    between atoms: CG_4  and  CD_5 
REMARK       I    between atoms: C_8  and  N_10 
REMARK    5  A    between atoms: N_10  and  CA_11 
REMARK    6  A    between atoms: CA_11  and  C_12 
REMARK       I    between atoms: C_12  and  N_14 
REMARK    7  A    between atoms: N_14  and  CA_15 
REMARK    8  A    between atoms: CA_15  and  C_20 
REMARK    9  A    between atoms: CA_15  and  CB_16 
REMARK   10  A    between atoms: CB_16  and  CG_17 
REMARK       I    between atoms: C_20  and  N_22 
REMARK   11  A    between atoms: N_22  and  CA_23 
REMARK   12  A    between atoms: CA_23  and  CB_24 
REMARK   13  A    between atoms: CA_23  and  C_28 
REMARK   14  A    between atoms: CB_24  and  CG_25 
REMARK       I    between atoms: C_28  and  N_30 
REMARK   15  A    between atoms: N_30  and  CA_31 
REMARK   16  A    between atoms: CA_31  and  CB_32 
REMARK   17  A    between atoms: CA_31  and  C_39 
REMARK   18  A    between atoms: CB_32  and  CG_33 
REMARK   19  A    between atoms: CG_33  and  CD_34 
REMARK   20  A    between atoms: CD_34  and  NE_35 
REMARK       I    between atoms: C_39  and  N_41 
REMARK   21  A    between atoms: CA_42  and  C_46 
REMARK       I    between atoms: C_46  and  N_48 
REMARK   22  A    between atoms: N_48  and  CA_49 
REMARK   23  A    between atoms: CA_49  and  C_52 
REMARK   24  A    between atoms: CA_49  and  CB_50 
REMARK       I    between atoms: C_52  and  N_54 
REMARK   25  A    between atoms: N_54  and  CA_55 
REMARK   26  A    between atoms: CA_55  and  C_56 
REMARK       I    between atoms: C_56  and  N_58 
REMARK   27  A    between atoms: N_58  and  CA_59 
REMARK   28  A    between atoms: CA_59  and  C_60 
REMARK       I    between atoms: C_60  and  N_62 
REMARK   29  A    between atoms: N_62  and  CA_63 
REMARK   30  A    between atoms: CA_63  and  CB_64 
REMARK   31  A    between atoms: CA_63  and  C_66 
REMARK       I    between atoms: C_66  and  N_68 
REMARK   32  A    between atoms: N_68  and  CA_69 
REMARK   33  A    between atoms: CA_69  and  C_70 
ROOT
ATOM      1  CA  ARG     5       5.982  -4.952   9.704  1.00  0.00     0.185 C 
ENDROOT
BRANCH   1   2
ATOM      2  N   ARG     5       4.589  -4.611   9.365  1.00  0.00    -0.229 NA
ATOM      3  C   ASN     4       3.640  -4.290  10.232  1.00  0.00     0.275 C 
ATOM      4  O   ASN     4       3.720  -4.477  11.442  1.00  0.00    -0.268 OA
BRANCH   3   5
ATOM      5  CA  ASN     4       2.293  -3.973   9.550  1.00  0.00     0.196 C 
BRANCH   5   6
ATOM      6  N   ASN     4       1.916  -2.561   9.769  1.00  0.00    -0.228 NA
ATOM      7  C   LEU     3       0.834  -2.193  10.451  1.00  0.00     0.274 C 
ATOM      8  O   LEU     3       0.033  -2.970  10.980  1.00  0.00    -0.268 OA
BRANCH   7   9
ATOM      9  CA  LEU     3       0.654  -0.684  10.609  1.00  0.00     0.186 C 
BRANCH   9  10
ATOM     10  N   LEU     3      -0.712  -0.396  11.099  1.00  0.00    -0.229 NA
ATOM     11  C   GLY     2      -1.621   0.258  10.369  1.00  0.00     0.277 C 
ATOM     12  O   GLY     2      -1.460   0.535   9.190  1.00  0.00    -0.268 OA
BRANCH  11  13
ATOM     13  CA  GLY     2      -2.984   0.505  11.050  1.00  0.00     0.218 C 
BRANCH  13  14
ATOM     14  N   GLY     2      -3.829  -0.671  11.370  1.00  0.00    -0.226 NA
ATOM     15  C   GLU     1      -4.278  -0.906  12.608  1.00  0.00     0.289 C 
ATOM     16  O   GLU     1      -4.151  -0.076  13.493  1.00  0.00    -0.268 OA
BRANCH  15  17
ATOM     17  CA  GLU     1      -5.047  -2.226  12.885  1.00  0.00     0.381 C 
ATOM     18  N   GLU     1      -6.459  -2.022  13.251  1.00  0.00     0.626 N 
BRANCH  17  19
ATOM     19  CB  GLU     1      -4.914  -3.140  11.650  1.00  0.00     0.060 C 
BRANCH  19  20
ATOM     20  CG  GLU     1      -6.173  -3.785  11.051  1.00  0.00     0.100 C 
BRANCH  20  21
ATOM     21  CD  GLU     1      -6.778  -2.958   9.906  1.00  0.00     0.185 C 
ATOM     22  OE1 GLU     1      -6.059  -2.689   8.927  1.00  0.00    -0.647 OA
ATOM     23  OE2 GLU     1      -7.953  -2.565  10.017  1.00  0.00    -0.647 OA
ENDBRANCH  20  21
ENDBRANCH  19  20
ENDBRANCH  17  19
ENDBRANCH  15  17
ENDBRANCH  13  14
ENDBRANCH  11  13
ENDBRANCH   9  10
BRANCH   9  24
ATOM     24  CB  LEU     3       1.701  -0.164  11.602  1.00  0.00     0.034 C 
BRANCH  24  25
ATOM     25  CG  LEU     3       2.689   0.847  10.992  1.00  0.00     0.002 C 
ATOM     26  CD1 LEU     3       4.085   0.229  10.944  1.00  0.00     0.000 C 
ATOM     27  CD2 LEU     3       2.253   1.268   9.584  1.00  0.00     0.000 C 
ENDBRANCH  24  25
ENDBRANCH   9  24
ENDBRANCH   7   9
ENDBRANCH   5   6
BRANCH   5  28
ATOM     28  CB  ASN     4       2.337  -4.283   8.044  1.00  0.00     0.126 C 
BRANCH  28  29
ATOM     29  CG  ASN     4       1.686  -5.629   7.669  1.00  0.00     0.276 C 
ATOM     30  ND2 ASN     4       2.497  -6.639   7.501  1.00  0.00    -0.107 N 
ATOM     31  OD1 ASN     4       0.485  -5.802   7.589  1.00  0.00    -0.269 OA
ENDBRANCH  28  29
ENDBRANCH   5  28
ENDBRANCH   3   5
ENDBRANCH   1   2
BRANCH   1  32
ATOM     32  CB  ARG     5       6.344  -6.338   9.157  1.00  0.00     0.036 C 
BRANCH  32  33
ATOM     33  CG  ARG     5       6.819  -7.321  10.228  1.00  0.00     0.029 C 
BRANCH  33  34
ATOM     34  CD  ARG     5       6.618  -6.705  11.608  1.00  0.00     0.145 C 
BRANCH  34  35
ATOM     35  NE  ARG     5       5.570  -7.412  12.384  1.00  0.00    -0.083 NA
ATOM     36  CZ  ARG     5       5.808  -8.344  13.319  1.00  0.00     0.782 C 
ATOM     37  NH2 ARG     5       4.836  -8.759  14.147  1.00  0.00     0.063 N 
ATOM     38  NH1 ARG     5       7.033  -8.797  13.545  1.00  0.00     0.063 N 
ENDBRANCH  34  35
ENDBRANCH  33  34
ENDBRANCH  32  33
ENDBRANCH   1  32
BRANCH   1  39
ATOM     39  C   ARG     5       6.932  -3.898   9.106  1.00  0.00     0.256 C 
ATOM     40  O   ARG     5       7.117  -3.862   7.886  1.00  0.00    -0.270 OA
ATOM     41  N   PRO     6       7.441  -2.989   9.943  1.00  0.00    -0.312 N 
ATOM     42  CA  PRO     6       8.393  -1.930   9.541  1.00  0.00     0.165 C 
ATOM     43  CD  PRO     6       7.025  -2.789  11.349  1.00  0.00     0.105 C 
ATOM     44  CB  PRO     6       8.760  -1.217  10.844  1.00  0.00     0.034 C 
ATOM     45  CG  PRO     6       7.501  -1.375  11.685  1.00  0.00     0.027 C 
BRANCH  42  46
ATOM     46  C   PRO     6       9.643  -2.524   8.871  1.00  0.00     0.272 C 
ATOM     47  N   SER     7       9.989  -2.112   7.658  1.00  0.00    -0.226 NA
ATOM     48  O   PRO     6      10.254  -3.450   9.412  1.00  0.00    -0.269 OA
BRANCH  47  49
ATOM     49  CA  SER     7       9.282  -1.109   6.826  1.00  0.00     0.219 C 
BRANCH  49  50
ATOM     50  C   SER     7       9.643  -1.240   5.336  1.00  0.00     0.277 C 
ATOM     51  O   SER     7       8.796  -0.980   4.488  1.00  0.00    -0.268 OA
ATOM     52  N   GLY     8      10.931  -1.402   5.066  1.00  0.00    -0.226 NA
BRANCH  52  53
ATOM     53  CA  GLY     8      11.413  -1.752   3.704  1.00  0.00     0.218 C 
BRANCH  53  54
ATOM     54  C   GLY     8      12.776  -1.200   3.251  1.00  0.00     0.277 C 
ATOM     55  N   GLY     9      12.970   0.122   3.367  1.00  0.00    -0.226 NA
ATOM     56  O   GLY     8      13.642  -1.959   2.848  1.00  0.00    -0.268 OA
BRANCH  55  57
ATOM     57  CA  GLY     9      14.213   0.795   2.936  1.00  0.00     0.218 C 
BRANCH  57  58
ATOM     58  C   GLY     9      13.920   1.934   1.930  1.00  0.00     0.277 C 
ATOM     59  O   GLY     9      13.689   1.656   0.760  1.00  0.00    -0.268 OA
ATOM     60  N   CYS    10      14.074   3.209   2.255  1.00  0.00    -0.228 NA
BRANCH  60  61
ATOM     61  CA  CYS    10      14.561   3.771   3.538  1.00  0.00     0.198 C 
BRANCH  61  62
ATOM     62  CB  CYS    10      15.466   4.993   3.336  1.00  0.00     0.103 C 
ATOM     63  SG  CYS    10      16.846   5.238   4.506  1.00  0.00    -0.080 SA
ENDBRANCH  61  62
BRANCH  61  64
ATOM     64  C   CYS    10      13.449   4.270   4.464  1.00  0.00     0.275 C 
ATOM     65  O   CYS    10      12.430   4.754   3.973  1.00  0.00    -0.268 OA
ATOM     66  N   GLY    11      13.559   3.842   5.711  1.00  0.00    -0.225 NA
BRANCH  66  67
ATOM     67  CA  GLY    11      13.120   4.664   6.848  1.00  0.00     0.226 C 
BRANCH  67  68
ATOM     68  C   GLY    11      11.621   4.360   6.996  1.00  0.00     0.211 C 
ATOM     69  O2  GLY    11      10.860   5.348   6.907  1.00  0.00    -0.646 OA
ATOM     70  O1  GLY    11      11.278   3.169   6.817  1.00  0.00    -0.646 OA
ENDBRANCH  67  68
ENDBRANCH  66  67
ENDBRANCH  61  64
ENDBRANCH  60  61
ENDBRANCH  57  58
ENDBRANCH  55  57
ENDBRANCH  53  54
ENDBRANCH  52  53
ENDBRANCH  49  50
BRANCH  49  71
ATOM     71  CB  SER     7       9.621   0.320   7.253  1.00  0.00     0.216 C 
ATOM     72  OG  SER     7       8.420   1.053   7.497  1.00  0.00    -0.218 OA
ENDBRANCH  49  71
ENDBRANCH  47  49
ENDBRANCH  42  46
ENDBRANCH   1  39
TORSDOF 33
ENDMDL
MODEL 7
REMARK VINA RESULT:      -5.3     14.065     21.330
REMARK WARNING: 32 MAX_TORS EXCEEDED!!!
REMARK  33 active torsions:
REMARK  status: ('A' for Active; 'I' for Inactive)
REMARK    1  A    between atoms: CA_2  and  C_8 
REMARK    2  A    between atoms: CA_2  and  CB_3 
REMARK    3  A    between atoms: CB_3  and  CG_4 
REMARK    4  A    between atoms: CG_4  and  CD_5 
REMARK       I    between atoms: C_8  and  N_10 
REMARK    5  A    between atoms: N_10  and  CA_11 
REMARK    6  A    between atoms: CA_11  and  C_12 
REMARK       I    between atoms: C_12  and  N_14 
REMARK    7  A    between atoms: N_14  and  CA_15 
REMARK    8  A    between atoms: CA_15  and  C_20 
REMARK    9  A    between atoms: CA_15  and  CB_16 
REMARK   10  A    between atoms: CB_16  and  CG_17 
REMARK       I    between atoms: C_20  and  N_22 
REMARK   11  A    between atoms: N_22  and  CA_23 
REMARK   12  A    between atoms: CA_23  and  CB_24 
REMARK   13  A    between atoms: CA_23  and  C_28 
REMARK   14  A    between atoms: CB_24  and  CG_25 
REMARK       I    between atoms: C_28  and  N_30 
REMARK   15  A    between atoms: N_30  and  CA_31 
REMARK   16  A    between atoms: CA_31  and  CB_32 
REMARK   17  A    between atoms: CA_31  and  C_39 
REMARK   18  A    between atoms: CB_32  and  CG_33 
REMARK   19  A    between atoms: CG_33  and  CD_34 
REMARK   20  A    between atoms: CD_34  and  NE_35 
REMARK       I    between atoms: C_39  and  N_41 
REMARK   21  A    between atoms: CA_42  and  C_46 
REMARK       I    between atoms: C_46  and  N_48 
REMARK   22  A    between atoms: N_48  and  CA_49 
REMARK   23  A    between atoms: CA_49  and  C_52 
REMARK   24  A    between atoms: CA_49  and  CB_50 
REMARK       I    between atoms: C_52  and  N_54 
REMARK   25  A    between atoms: N_54  and  CA_55 
REMARK   26  A    between atoms: CA_55  and  C_56 
REMARK       I    between atoms: C_56  and  N_58 
REMARK   27  A    between atoms: N_58  and  CA_59 
REMARK   28  A    between atoms: CA_59  and  C_60 
REMARK       I    between atoms: C_60  and  N_62 
REMARK   29  A    between atoms: N_62  and  CA_63 
REMARK   30  A    between atoms: CA_63  and  CB_64 
REMARK   31  A    between atoms: CA_63  and  C_66 
REMARK       I    between atoms: C_66  and  N_68 
REMARK   32  A    between atoms: N_68  and  CA_69 
REMARK   33  A    between atoms: CA_69  and  C_70 
ROOT
ATOM      1  CA  ARG     5      -0.774 -18.432   6.046  1.00  0.00     0.185 C 
ENDROOT
BRANCH   1   2
ATOM      2  N   ARG     5      -1.739 -19.528   5.847  1.00  0.00    -0.229 NA
ATOM      3  C   ASN     4      -2.118 -20.020   4.677  1.00  0.00     0.275 C 
ATOM      4  O   ASN     4      -1.915 -19.470   3.599  1.00  0.00    -0.268 OA
BRANCH   3   5
ATOM      5  CA  ASN     4      -3.132 -21.174   4.817  1.00  0.00     0.196 C 
BRANCH   5   6
ATOM      6  N   ASN     4      -4.476 -20.746   4.373  1.00  0.00    -0.228 NA
ATOM      7  C   LEU     3      -5.394 -20.254   5.201  1.00  0.00     0.274 C 
ATOM      8  O   LEU     3      -5.237 -20.090   6.415  1.00  0.00    -0.268 OA
BRANCH   7   9
ATOM      9  CA  LEU     3      -6.698 -19.820   4.532  1.00  0.00     0.186 C 
BRANCH   9  10
ATOM     10  N   LEU     3      -6.662 -18.363   4.274  1.00  0.00    -0.229 NA
ATOM     11  C   GLY     2      -7.371 -17.483   4.985  1.00  0.00     0.277 C 
ATOM     12  O   GLY     2      -7.984 -17.780   6.000  1.00  0.00    -0.268 OA
BRANCH  11  13
ATOM     13  CA  GLY     2      -7.244 -16.006   4.555  1.00  0.00     0.218 C 
BRANCH  13  14
ATOM     14  N   GLY     2      -8.395 -15.378   3.862  1.00  0.00    -0.226 NA
ATOM     15  C   GLU     1      -8.510 -14.051   3.737  1.00  0.00     0.289 C 
ATOM     16  O   GLU     1      -7.592 -13.307   4.041  1.00  0.00    -0.268 OA
BRANCH  15  17
ATOM     17  CA  GLU     1      -9.806 -13.470   3.113  1.00  0.00     0.381 C 
ATOM     18  N   GLU     1     -10.280 -14.214   1.932  1.00  0.00     0.626 N 
BRANCH  17  19
ATOM     19  CB  GLU     1     -10.892 -13.406   4.207  1.00  0.00     0.060 C 
BRANCH  19  20
ATOM     20  CG  GLU     1     -11.115 -12.092   4.971  1.00  0.00     0.100 C 
BRANCH  20  21
ATOM     21  CD  GLU     1     -11.957 -11.079   4.180  1.00  0.00     0.185 C 
ATOM     22  OE1 GLU     1     -12.835 -11.512   3.412  1.00  0.00    -0.647 OA
ATOM     23  OE2 GLU     1     -11.708  -9.869   4.316  1.00  0.00    -0.647 OA
ENDBRANCH  20  21
ENDBRANCH  19  20
ENDBRANCH  17  19
ENDBRANCH  15  17
ENDBRANCH  13  14
ENDBRANCH  11  13
ENDBRANCH   9  10
BRANCH   9  24
ATOM     24  CB  LEU     3      -6.860 -20.595   3.219  1.00  0.00     0.034 C 
BRANCH  24  25
ATOM     25  CG  LEU     3      -8.130 -21.463   3.162  1.00  0.00     0.002 C 
ATOM     26  CD1 LEU     3      -7.790 -22.890   3.587  1.00  0.00     0.000 C 
ATOM     27  CD2 LEU     3      -9.231 -20.895   4.063  1.00  0.00     0.000 C 
ENDBRANCH  24  25
ENDBRANCH   9  24
ENDBRANCH   7   9
ENDBRANCH   5   6
BRANCH   5  28
ATOM     28  CB  ASN     4      -2.684 -22.417   4.029  1.00  0.00     0.126 C 
BRANCH  28  29
ATOM     29  CG  ASN     4      -1.281 -22.923   4.417  1.00  0.00     0.276 C 
ATOM     30  ND2 ASN     4      -0.433 -23.090   3.437  1.00  0.00    -0.107 N 
ATOM     31  OD1 ASN     4      -0.919 -23.106   5.564  1.00  0.00    -0.269 OA
ENDBRANCH  28  29
ENDBRANCH   5  28
ENDBRANCH   3   5
ENDBRANCH   1   2
BRANCH   1  32
ATOM     32  CB  ARG     5      -1.349 -17.376   6.996  1.00  0.00     0.036 C 
BRANCH  32  33
ATOM     33  CG  ARG     5      -2.866 -17.462   7.173  1.00  0.00     0.029 C 
BRANCH  33  34
ATOM     34  CD  ARG     5      -3.386 -16.144   7.738  1.00  0.00     0.145 C 
BRANCH  34  35
ATOM     35  NE  ARG     5      -2.285 -15.268   8.206  1.00  0.00    -0.083 NA
ATOM     36  CZ  ARG     5      -2.286 -14.591   9.364  1.00  0.00     0.782 C 
ATOM     37  NH2 ARG     5      -1.165 -14.020   9.835  1.00  0.00     0.063 N 
ATOM     38  NH1 ARG     5      -3.354 -14.566  10.148  1.00  0.00     0.063 N 
ENDBRANCH  34  35
ENDBRANCH  33  34
ENDBRANCH  32  33
ENDBRANCH   1  32
BRANCH   1  39
ATOM     39  C   ARG     5       0.533 -18.996   6.632  1.00  0.00     0.256 C 
ATOM     40  O   ARG     5       1.606 -18.433   6.392  1.00  0.00    -0.270 OA
ATOM     41  N   PRO     6       0.430 -20.031   7.471  1.00  0.00    -0.312 N 
ATOM     42  CA  PRO     6       1.586 -20.713   8.095  1.00  0.00     0.165 C 
ATOM     43  CD  PRO     6      -0.833 -20.554   8.036  1.00  0.00     0.105 C 
ATOM     44  CB  PRO     6       0.976 -21.878   8.878  1.00  0.00     0.034 C 
ATOM     45  CG  PRO     6      -0.395 -21.346   9.269  1.00  0.00     0.027 C 
BRANCH  42  46
ATOM     46  C   PRO     6       2.576 -21.224   7.035  1.00  0.00     0.272 C 
ATOM     47  N   SER     7       3.870 -20.976   7.181  1.00  0.00    -0.226 NA
ATOM     48  O   PRO     6       2.156 -21.763   6.007  1.00  0.00    -0.269 OA
BRANCH  47  49
ATOM     49  CA  SER     7       4.511 -20.226   8.287  1.00  0.00     0.219 C 
BRANCH  49  50
ATOM     50  C   SER     7       5.983 -19.896   7.982  1.00  0.00     0.277 C 
ATOM     51  O   SER     7       6.357 -19.843   6.815  1.00  0.00    -0.268 OA
ATOM     52  N   GLY     8       6.700 -19.456   9.007  1.00  0.00    -0.226 NA
BRANCH  52  53
ATOM     53  CA  GLY     8       8.176 -19.296   8.924  1.00  0.00     0.218 C 
BRANCH  53  54
ATOM     54  C   GLY     8       8.734 -17.971   8.375  1.00  0.00     0.277 C 
ATOM     55  N   GLY     9       9.390 -18.020   7.207  1.00  0.00    -0.226 NA
ATOM     56  O   GLY     8       8.537 -16.927   8.975  1.00  0.00    -0.268 OA
BRANCH  55  57
ATOM     57  CA  GLY     9      10.012 -16.835   6.581  1.00  0.00     0.218 C 
BRANCH  57  58
ATOM     58  C   GLY     9       9.037 -16.132   5.607  1.00  0.00     0.277 C 
ATOM     59  O   GLY     9       8.209 -15.346   6.049  1.00  0.00    -0.268 OA
ATOM     60  N   CYS    10       8.955 -16.477   4.329  1.00  0.00    -0.228 NA
BRANCH  60  61
ATOM     61  CA  CYS    10       9.695 -17.554   3.627  1.00  0.00     0.198 C 
BRANCH  61  62
ATOM     62  CB  CYS    10       9.013 -18.920   3.767  1.00  0.00     0.103 C 
ATOM     63  SG  CYS    10      10.026 -20.327   4.337  1.00  0.00    -0.080 SA
ENDBRANCH  61  62
BRANCH  61  64
ATOM     64  C   CYS    10       9.819 -17.343   2.116  1.00  0.00     0.275 C 
ATOM     65  O   CYS    10      10.820 -16.787   1.667  1.00  0.00    -0.268 OA
ATOM     66  N   GLY    11       8.971 -18.067   1.404  1.00  0.00    -0.225 NA
BRANCH  66  67
ATOM     67  CA  GLY    11       8.415 -17.573   0.136  1.00  0.00     0.226 C 
BRANCH  67  68
ATOM     68  C   GLY    11       7.128 -16.833   0.534  1.00  0.00     0.211 C 
ATOM     69  O2  GLY    11       7.085 -15.623   0.224  1.00  0.00    -0.646 OA
ATOM     70  O1  GLY    11       6.130 -17.550   0.774  1.00  0.00    -0.646 OA
ENDBRANCH  67  68
ENDBRANCH  66  67
ENDBRANCH  61  64
ENDBRANCH  60  61
ENDBRANCH  57  58
ENDBRANCH  55  57
ENDBRANCH  53  54
ENDBRANCH  52  53
ENDBRANCH  49  50
BRANCH  49  71
ATOM     71  CB  SER     7       4.484 -21.016   9.597  1.00  0.00     0.216 C 
ATOM     72  OG  SER     7       3.842 -20.248  10.616  1.00  0.00    -0.218 OA
ENDBRANCH  49  71
ENDBRANCH  47  49
ENDBRANCH  42  46
ENDBRANCH   1  39
TORSDOF 33
ENDMDL
MODEL 8
REMARK VINA RESULT:      -5.3     13.595     18.719
REMARK WARNING: 32 MAX_TORS EXCEEDED!!!
REMARK  33 active torsions:
REMARK  status: ('A' for Active; 'I' for Inactive)
REMARK    1  A    between atoms: CA_2  and  C_8 
REMARK    2  A    between atoms: CA_2  and  CB_3 
REMARK    3  A    between atoms: CB_3  and  CG_4 
REMARK    4  A    between atoms: CG_4  and  CD_5 
REMARK       I    between atoms: C_8  and  N_10 
REMARK    5  A    between atoms: N_10  and  CA_11 
REMARK    6  A    between atoms: CA_11  and  C_12 
REMARK       I    between atoms: C_12  and  N_14 
REMARK    7  A    between atoms: N_14  and  CA_15 
REMARK    8  A    between atoms: CA_15  and  C_20 
REMARK    9  A    between atoms: CA_15  and  CB_16 
REMARK   10  A    between atoms: CB_16  and  CG_17 
REMARK       I    between atoms: C_20  and  N_22 
REMARK   11  A    between atoms: N_22  and  CA_23 
REMARK   12  A    between atoms: CA_23  and  CB_24 
REMARK   13  A    between atoms: CA_23  and  C_28 
REMARK   14  A    between atoms: CB_24  and  CG_25 
REMARK       I    between atoms: C_28  and  N_30 
REMARK   15  A    between atoms: N_30  and  CA_31 
REMARK   16  A    between atoms: CA_31  and  CB_32 
REMARK   17  A    between atoms: CA_31  and  C_39 
REMARK   18  A    between atoms: CB_32  and  CG_33 
REMARK   19  A    between atoms: CG_33  and  CD_34 
REMARK   20  A    between atoms: CD_34  and  NE_35 
REMARK       I    between atoms: C_39  and  N_41 
REMARK   21  A    between atoms: CA_42  and  C_46 
REMARK       I    between atoms: C_46  and  N_48 
REMARK   22  A    between atoms: N_48  and  CA_49 
REMARK   23  A    between atoms: CA_49  and  C_52 
REMARK   24  A    between atoms: CA_49  and  CB_50 
REMARK       I    between atoms: C_52  and  N_54 
REMARK   25  A    between atoms: N_54  and  CA_55 
REMARK   26  A    between atoms: CA_55  and  C_56 
REMARK       I    between atoms: C_56  and  N_58 
REMARK   27  A    between atoms: N_58  and  CA_59 
REMARK   28  A    between atoms: CA_59  and  C_60 
REMARK       I    between atoms: C_60  and  N_62 
REMARK   29  A    between atoms: N_62  and  CA_63 
REMARK   30  A    between atoms: CA_63  and  CB_64 
REMARK   31  A    between atoms: CA_63  and  C_66 
REMARK       I    between atoms: C_66  and  N_68 
REMARK   32  A    between atoms: N_68  and  CA_69 
REMARK   33  A    between atoms: CA_69  and  C_70 
ROOT
ATOM      1  CA  ARG     5       7.926 -20.800   3.993  1.00  0.00     0.185 C 
ENDROOT
BRANCH   1   2
ATOM      2  N   ARG     5       8.461 -19.427   3.942  1.00  0.00    -0.229 NA
ATOM      3  C   ASN     4       7.974 -18.436   3.211  1.00  0.00     0.275 C 
ATOM      4  O   ASN     4       7.174 -18.584   2.292  1.00  0.00    -0.268 OA
BRANCH   3   5
ATOM      5  CA  ASN     4       8.757 -17.119   3.395  1.00  0.00     0.196 C 
BRANCH   5   6
ATOM      6  N   ASN     4       9.512 -17.135   4.667  1.00  0.00    -0.228 NA
ATOM      7  C   LEU     3       9.232 -16.331   5.690  1.00  0.00     0.274 C 
ATOM      8  O   LEU     3       8.322 -15.497   5.706  1.00  0.00    -0.268 OA
BRANCH   7   9
ATOM      9  CA  LEU     3      10.097 -16.544   6.931  1.00  0.00     0.186 C 
BRANCH   9  10
ATOM     10  N   LEU     3      10.995 -15.381   7.115  1.00  0.00    -0.229 NA
ATOM     11  C   GLY     2      12.325 -15.494   7.175  1.00  0.00     0.277 C 
ATOM     12  O   GLY     2      12.920 -16.533   6.930  1.00  0.00    -0.268 OA
BRANCH  11  13
ATOM     13  CA  GLY     2      13.105 -14.184   7.409  1.00  0.00     0.218 C 
BRANCH  13  14
ATOM     14  N   GLY     2      14.281 -13.908   6.549  1.00  0.00    -0.226 NA
ATOM     15  C   GLU     1      14.154 -13.459   5.294  1.00  0.00     0.289 C 
ATOM     16  O   GLU     1      13.072 -13.099   4.861  1.00  0.00    -0.268 OA
BRANCH  15  17
ATOM     17  CA  GLU     1      15.427 -13.319   4.419  1.00  0.00     0.381 C 
ATOM     18  N   GLU     1      16.666 -13.146   5.199  1.00  0.00     0.626 N 
BRANCH  17  19
ATOM     19  CB  GLU     1      15.520 -14.545   3.487  1.00  0.00     0.060 C 
BRANCH  19  20
ATOM     20  CG  GLU     1      15.018 -15.909   3.984  1.00  0.00     0.100 C 
BRANCH  20  21
ATOM     21  CD  GLU     1      13.829 -16.439   3.169  1.00  0.00     0.185 C 
ATOM     22  OE1 GLU     1      14.022 -16.760   1.982  1.00  0.00    -0.647 OA
ATOM     23  OE2 GLU     1      12.714 -16.497   3.717  1.00  0.00    -0.647 OA
ENDBRANCH  20  21
ENDBRANCH  19  20
ENDBRANCH  17  19
ENDBRANCH  15  17
ENDBRANCH  13  14
ENDBRANCH  11  13
ENDBRANCH   9  10
BRANCH   9  24
ATOM     24  CB  LEU     3       9.180 -16.712   8.148  1.00  0.00     0.034 C 
BRANCH  24  25
ATOM     25  CG  LEU     3       9.777 -17.594   9.260  1.00  0.00     0.002 C 
ATOM     26  CD1 LEU     3      10.843 -18.512   8.664  1.00  0.00     0.000 C 
ATOM     27  CD2 LEU     3      10.385 -16.741  10.379  1.00  0.00     0.000 C 
ENDBRANCH  24  25
ENDBRANCH   9  24
ENDBRANCH   7   9
ENDBRANCH   5   6
BRANCH   5  28
ATOM     28  CB  ASN     4       9.709 -16.860   2.215  1.00  0.00     0.126 C 
BRANCH  28  29
ATOM     29  CG  ASN     4       9.510 -15.485   1.549  1.00  0.00     0.276 C 
ATOM     30  ND2 ASN     4       9.426 -14.458   2.353  1.00  0.00    -0.107 N 
ATOM     31  OD1 ASN     4       9.493 -15.310   0.346  1.00  0.00    -0.269 OA
ENDBRANCH  28  29
ENDBRANCH   5  28
ENDBRANCH   3   5
ENDBRANCH   1   2
BRANCH   1  32
ATOM     32  CB  ARG     5       9.065 -21.823   3.927  1.00  0.00     0.036 C 
BRANCH  32  33
ATOM     33  CG  ARG     5       8.628 -23.204   3.435  1.00  0.00     0.029 C 
BRANCH  33  34
ATOM     34  CD  ARG     5       8.949 -23.338   1.950  1.00  0.00     0.145 C 
BRANCH  34  35
ATOM     35  NE  ARG     5       9.813 -22.233   1.467  1.00  0.00    -0.083 NA
ATOM     36  CZ  ARG     5      10.649 -22.317   0.422  1.00  0.00     0.782 C 
ATOM     37  NH2 ARG     5      11.210 -21.217  -0.107  1.00  0.00     0.063 N 
ATOM     38  NH1 ARG     5      10.855 -23.465  -0.207  1.00  0.00     0.063 N 
ENDBRANCH  34  35
ENDBRANCH  33  34
ENDBRANCH  32  33
ENDBRANCH   1  32
BRANCH   1  39
ATOM     39  C   ARG     5       7.132 -20.995   5.299  1.00  0.00     0.256 C 
ATOM     40  O   ARG     5       5.908 -21.149   5.254  1.00  0.00    -0.270 OA
ATOM     41  N   PRO     6       7.835 -21.091   6.432  1.00  0.00    -0.312 N 
ATOM     42  CA  PRO     6       7.230 -21.246   7.774  1.00  0.00     0.165 C 
ATOM     43  CD  PRO     6       9.305 -21.221   6.521  1.00  0.00     0.105 C 
ATOM     44  CB  PRO     6       8.412 -21.208   8.743  1.00  0.00     0.034 C 
ATOM     45  CG  PRO     6       9.549 -21.795   7.918  1.00  0.00     0.027 C 
BRANCH  42  46
ATOM     46  C   PRO     6       6.236 -20.112   8.076  1.00  0.00     0.272 C 
ATOM     47  N   SER     7       4.977 -20.409   8.363  1.00  0.00    -0.226 NA
ATOM     48  O   PRO     6       6.585 -18.935   7.946  1.00  0.00    -0.269 OA
BRANCH  47  49
ATOM     49  CA  SER     7       4.376 -21.764   8.424  1.00  0.00     0.219 C 
BRANCH  49  50
ATOM     50  C   SER     7       3.104 -21.869   7.565  1.00  0.00     0.277 C 
ATOM     51  O   SER     7       2.297 -22.763   7.794  1.00  0.00    -0.268 OA
ATOM     52  N   GLY     8       2.852 -20.832   6.778  1.00  0.00    -0.226 NA
BRANCH  52  53
ATOM     53  CA  GLY     8       1.787 -20.870   5.741  1.00  0.00     0.218 C 
BRANCH  53  54
ATOM     54  C   GLY     8       0.547 -19.981   5.940  1.00  0.00     0.277 C 
ATOM     55  N   GLY     9       0.749 -18.749   6.430  1.00  0.00    -0.226 NA
ATOM     56  O   GLY     8      -0.557 -20.388   5.618  1.00  0.00    -0.268 OA
BRANCH  55  57
ATOM     57  CA  GLY     9      -0.351 -17.803   6.709  1.00  0.00     0.218 C 
BRANCH  57  58
ATOM     58  C   GLY     9      -0.756 -17.831   8.202  1.00  0.00     0.277 C 
ATOM     59  O   GLY     9      -0.009 -18.357   9.017  1.00  0.00    -0.268 OA
ATOM     60  N   CYS    10      -1.961 -17.454   8.606  1.00  0.00    -0.228 NA
BRANCH  60  61
ATOM     61  CA  CYS    10      -3.101 -16.997   7.773  1.00  0.00     0.198 C 
BRANCH  61  62
ATOM     62  CB  CYS    10      -4.268 -17.992   7.785  1.00  0.00     0.103 C 
ATOM     63  SG  CYS    10      -4.835 -18.663   6.185  1.00  0.00    -0.080 SA
ENDBRANCH  61  62
BRANCH  61  64
ATOM     64  C   CYS    10      -3.721 -15.676   8.233  1.00  0.00     0.275 C 
ATOM     65  O   CYS    10      -4.541 -15.113   7.509  1.00  0.00    -0.268 OA
ATOM     66  N   GLY    11      -3.546 -15.422   9.520  1.00  0.00    -0.225 NA
BRANCH  66  67
ATOM     67  CA  GLY    11      -3.393 -14.048  10.018  1.00  0.00     0.226 C 
BRANCH  67  68
ATOM     68  C   GLY    11      -1.955 -13.653   9.646  1.00  0.00     0.211 C 
ATOM     69  O2  GLY    11      -1.064 -14.440  10.031  1.00  0.00    -0.646 OA
ATOM     70  O1  GLY    11      -1.833 -12.830   8.710  1.00  0.00    -0.646 OA
ENDBRANCH  67  68
ENDBRANCH  66  67
ENDBRANCH  61  64
ENDBRANCH  60  61
ENDBRANCH  57  58
ENDBRANCH  55  57
ENDBRANCH  53  54
ENDBRANCH  52  53
ENDBRANCH  49  50
BRANCH  49  71
ATOM     71  CB  SER     7       3.993 -22.149   9.855  1.00  0.00     0.216 C 
ATOM     72  OG  SER     7       3.641 -20.980  10.596  1.00  0.00    -0.218 OA
ENDBRANCH  49  71
ENDBRANCH  47  49
ENDBRANCH  42  46
ENDBRANCH   1  39
TORSDOF 33
ENDMDL
MODEL 9
REMARK VINA RESULT:      -5.2      7.274     14.780
REMARK WARNING: 32 MAX_TORS EXCEEDED!!!
REMARK  33 active torsions:
REMARK  status: ('A' for Active; 'I' for Inactive)
REMARK    1  A    between atoms: CA_2  and  C_8 
REMARK    2  A    between atoms: CA_2  and  CB_3 
REMARK    3  A    between atoms: CB_3  and  CG_4 
REMARK    4  A    between atoms: CG_4  and  CD_5 
REMARK       I    between atoms: C_8  and  N_10 
REMARK    5  A    between atoms: N_10  and  CA_11 
REMARK    6  A    between atoms: CA_11  and  C_12 
REMARK       I    between atoms: C_12  and  N_14 
REMARK    7  A    between atoms: N_14  and  CA_15 
REMARK    8  A    between atoms: CA_15  and  C_20 
REMARK    9  A    between atoms: CA_15  and  CB_16 
REMARK   10  A    between atoms: CB_16  and  CG_17 
REMARK       I    between atoms: C_20  and  N_22 
REMARK   11  A    between atoms: N_22  and  CA_23 
REMARK   12  A    between atoms: CA_23  and  CB_24 
REMARK   13  A    between atoms: CA_23  and  C_28 
REMARK   14  A    between atoms: CB_24  and  CG_25 
REMARK       I    between atoms: C_28  and  N_30 
REMARK   15  A    between atoms: N_30  and  CA_31 
REMARK   16  A    between atoms: CA_31  and  CB_32 
REMARK   17  A    between atoms: CA_31  and  C_39 
REMARK   18  A    between atoms: CB_32  and  CG_33 
REMARK   19  A    between atoms: CG_33  and  CD_34 
REMARK   20  A    between atoms: CD_34  and  NE_35 
REMARK       I    between atoms: C_39  and  N_41 
REMARK   21  A    between atoms: CA_42  and  C_46 
REMARK       I    between atoms: C_46  and  N_48 
REMARK   22  A    between atoms: N_48  and  CA_49 
REMARK   23  A    between atoms: CA_49  and  C_52 
REMARK   24  A    between atoms: CA_49  and  CB_50 
REMARK       I    between atoms: C_52  and  N_54 
REMARK   25  A    between atoms: N_54  and  CA_55 
REMARK   26  A    between atoms: CA_55  and  C_56 
REMARK       I    between atoms: C_56  and  N_58 
REMARK   27  A    between atoms: N_58  and  CA_59 
REMARK   28  A    between atoms: CA_59  and  C_60 
REMARK       I    between atoms: C_60  and  N_62 
REMARK   29  A    between atoms: N_62  and  CA_63 
REMARK   30  A    between atoms: CA_63  and  CB_64 
REMARK   31  A    between atoms: CA_63  and  C_66 
REMARK       I    between atoms: C_66  and  N_68 
REMARK   32  A    between atoms: N_68  and  CA_69 
REMARK   33  A    between atoms: CA_69  and  C_70 
ROOT
ATOM      1  CA  ARG     5      16.138  -3.631   3.422  1.00  0.00     0.185 C 
ENDROOT
BRANCH   1   2
ATOM      2  N   ARG     5      14.929  -2.797   3.295  1.00  0.00    -0.229 NA
ATOM      3  C   ASN     4      14.420  -2.345   2.159  1.00  0.00     0.275 C 
ATOM      4  O   ASN     4      15.017  -2.344   1.088  1.00  0.00    -0.268 OA
BRANCH   3   5
ATOM      5  CA  ASN     4      13.139  -1.511   2.372  1.00  0.00     0.196 C 
BRANCH   5   6
ATOM      6  N   ASN     4      12.780  -1.462   3.805  1.00  0.00    -0.228 NA
ATOM      7  C   LEU     3      11.523  -1.474   4.242  1.00  0.00     0.274 C 
ATOM      8  O   LEU     3      10.524  -1.535   3.520  1.00  0.00    -0.268 OA
BRANCH   7   9
ATOM      9  CA  LEU     3      11.370  -1.471   5.762  1.00  0.00     0.186 C 
BRANCH   9  10
ATOM     10  N   LEU     3      12.209  -0.399   6.343  1.00  0.00    -0.229 NA
ATOM     11  C   GLY     2      12.940  -0.568   7.449  1.00  0.00     0.277 C 
ATOM     12  O   GLY     2      13.102  -1.655   7.984  1.00  0.00    -0.268 OA
BRANCH  11  13
ATOM     13  CA  GLY     2      13.726   0.667   7.936  1.00  0.00     0.218 C 
BRANCH  13  14
ATOM     14  N   GLY     2      13.869   1.815   7.008  1.00  0.00    -0.226 NA
ATOM     15  C   GLU     1      13.328   3.010   7.269  1.00  0.00     0.289 C 
ATOM     16  O   GLU     1      12.834   3.255   8.357  1.00  0.00    -0.268 OA
BRANCH  15  17
ATOM     17  CA  GLU     1      13.414   4.120   6.187  1.00  0.00     0.381 C 
ATOM     18  N   GLU     1      13.008   5.451   6.672  1.00  0.00     0.626 N 
BRANCH  17  19
ATOM     19  CB  GLU     1      14.849   4.144   5.622  1.00  0.00     0.060 C 
BRANCH  19  20
ATOM     20  CG  GLU     1      15.129   3.514   4.249  1.00  0.00     0.100 C 
BRANCH  20  21
ATOM     21  CD  GLU     1      14.362   4.202   3.111  1.00  0.00     0.185 C 
ATOM     22  OE1 GLU     1      13.855   3.491   2.225  1.00  0.00    -0.647 OA
ATOM     23  OE2 GLU     1      14.304   5.444   3.102  1.00  0.00    -0.647 OA
ENDBRANCH  20  21
ENDBRANCH  19  20
ENDBRANCH  17  19
ENDBRANCH  15  17
ENDBRANCH  13  14
ENDBRANCH  11  13
ENDBRANCH   9  10
BRANCH   9  24
ATOM     24  CB  LEU     3       9.893  -1.244   6.109  1.00  0.00     0.034 C 
BRANCH  24  25
ATOM     25  CG  LEU     3       9.202  -2.476   6.721  1.00  0.00     0.002 C 
ATOM     26  CD1 LEU     3       8.027  -2.892   5.838  1.00  0.00     0.000 C 
ATOM     27  CD2 LEU     3      10.183  -3.644   6.872  1.00  0.00     0.000 C 
ENDBRANCH  24  25
ENDBRANCH   9  24
ENDBRANCH   7   9
ENDBRANCH   5   6
BRANCH   5  28
ATOM     28  CB  ASN     4      13.296  -0.086   1.814  1.00  0.00     0.126 C 
BRANCH  28  29
ATOM     29  CG  ASN     4      12.467   0.175   0.541  1.00  0.00     0.276 C 
ATOM     30  ND2 ASN     4      13.116   0.655  -0.486  1.00  0.00    -0.107 N 
ATOM     31  OD1 ASN     4      11.287  -0.099   0.432  1.00  0.00    -0.269 OA
ENDBRANCH  28  29
ENDBRANCH   5  28
ENDBRANCH   3   5
ENDBRANCH   1   2
BRANCH   1  32
ATOM     32  CB  ARG     5      17.224  -2.887   4.208  1.00  0.00     0.036 C 
BRANCH  32  33
ATOM     33  CG  ARG     5      18.646  -3.182   3.728  1.00  0.00     0.029 C 
BRANCH  33  34
ATOM     34  CD  ARG     5      18.604  -3.674   2.285  1.00  0.00     0.145 C 
BRANCH  34  35
ATOM     35  NE  ARG     5      19.062  -2.635   1.331  1.00  0.00    -0.083 NA
ATOM     36  CZ  ARG     5      18.647  -2.527   0.060  1.00  0.00     0.782 C 
ATOM     37  NH2 ARG     5      18.912  -1.428  -0.665  1.00  0.00     0.063 N 
ATOM     38  NH1 ARG     5      17.855  -3.438  -0.487  1.00  0.00     0.063 N 
ENDBRANCH  34  35
ENDBRANCH  33  34
ENDBRANCH  32  33
ENDBRANCH   1  32
BRANCH   1  39
ATOM     39  C   ARG     5      15.785  -4.943   4.148  1.00  0.00     0.256 C 
ATOM     40  O   ARG     5      15.640  -4.946   5.374  1.00  0.00    -0.270 OA
ATOM     41  N   PRO     6      15.548  -6.017   3.388  1.00  0.00    -0.312 N 
ATOM     42  CA  PRO     6      15.230  -7.360   3.922  1.00  0.00     0.165 C 
ATOM     43  CD  PRO     6      15.405  -6.011   1.915  1.00  0.00     0.105 C 
ATOM     44  CB  PRO     6      15.146  -8.262   2.690  1.00  0.00     0.034 C 
ATOM     45  CG  PRO     6      14.663  -7.312   1.604  1.00  0.00     0.027 C 
BRANCH  42  46
ATOM     46  C   PRO     6      16.320  -7.852   4.889  1.00  0.00     0.272 C 
ATOM     47  N   SER     7      15.972  -8.317   6.080  1.00  0.00    -0.226 NA
ATOM     48  O   PRO     6      17.512  -7.714   4.598  1.00  0.00    -0.269 OA
BRANCH  47  49
ATOM     49  CA  SER     7      14.597  -8.419   6.626  1.00  0.00     0.219 C 
BRANCH  49  50
ATOM     50  C   SER     7      14.469  -7.730   7.996  1.00  0.00     0.277 C 
ATOM     51  O   SER     7      15.207  -8.074   8.913  1.00  0.00    -0.268 OA
ATOM     52  N   GLY     8      13.718  -6.637   8.024  1.00  0.00    -0.226 NA
BRANCH  52  53
ATOM     53  CA  GLY     8      13.328  -5.983   9.301  1.00  0.00     0.218 C 
BRANCH  53  54
ATOM     54  C   GLY     8      12.062  -6.486  10.017  1.00  0.00     0.277 C 
ATOM     55  N   GLY     9      10.940  -5.771   9.853  1.00  0.00    -0.226 NA
ATOM     56  O   GLY     8      12.094  -7.519  10.666  1.00  0.00    -0.268 OA
BRANCH  55  57
ATOM     57  CA  GLY     9       9.662  -6.112  10.511  1.00  0.00     0.218 C 
BRANCH  57  58
ATOM     58  C   GLY     9       8.605  -6.584   9.484  1.00  0.00     0.277 C 
ATOM     59  O   GLY     9       8.971  -6.972   8.382  1.00  0.00    -0.268 OA
ATOM     60  N   CYS    10       7.306  -6.428   9.696  1.00  0.00    -0.228 NA
BRANCH  60  61
ATOM     61  CA  CYS    10       6.643  -5.780  10.854  1.00  0.00     0.198 C 
BRANCH  61  62
ATOM     62  CB  CYS    10       6.424  -4.278  10.638  1.00  0.00     0.103 C 
ATOM     63  SG  CYS    10       6.562  -3.176  12.087  1.00  0.00    -0.080 SA
ENDBRANCH  61  62
BRANCH  61  64
ATOM     64  C   CYS    10       5.248  -6.328  11.161  1.00  0.00     0.275 C 
ATOM     65  O   CYS    10       5.079  -7.012  12.169  1.00  0.00    -0.268 OA
ATOM     66  N   GLY    11       4.280  -5.747  10.470  1.00  0.00    -0.225 NA
BRANCH  66  67
ATOM     67  CA  GLY    11       3.082  -6.489  10.052  1.00  0.00     0.226 C 
BRANCH  67  68
ATOM     68  C   GLY    11       2.810  -6.018   8.615  1.00  0.00     0.211 C 
ATOM     69  O2  GLY    11       3.014  -6.868   7.722  1.00  0.00    -0.646 OA
ATOM     70  O1  GLY    11       2.081  -5.007   8.493  1.00  0.00    -0.646 OA
ENDBRANCH  67  68
ENDBRANCH  66  67
ENDBRANCH  61  64
ENDBRANCH  60  61
ENDBRANCH  57  58
ENDBRANCH  55  57
ENDBRANCH  53  54
ENDBRANCH  52  53
ENDBRANCH  49  50
BRANCH  49  71
ATOM     71  CB  SER     7      14.166  -9.876   6.807  1.00  0.00     0.216 C 
ATOM     72  OG  SER     7      12.794  -9.934   7.196  1.00  0.00    -0.218 OA
ENDBRANCH  49  71
ENDBRANCH  47  49
ENDBRANCH  42  46
ENDBRANCH   1  39
TORSDOF 33
ENDMDL
