MODEL 1
REMARK VINA RESULT:      -6.7      0.000      0.000
REMARK WARNING: 32 MAX_TORS EXCEEDED!!!
REMARK  33 active torsions:
REMARK  status: ('A' for Active; 'I' for Inactive)
REMARK    1  A    between atoms: CA_2  and  C_8 
REMARK    2  A    between atoms: CA_2  and  CB_3 
REMARK    3  A    between atoms: CB_3  and  CG_4 
REMARK    4  A    between atoms: CG_4  and  CD_5 
REMARK       I    between atoms: C_8  and  N_10 
REMARK    5  A    between atoms: N_10  and  CA_11 
REMARK    6  A    between atoms: CA_11  and  C_12 
REMARK       I    between atoms: C_12  and  N_14 
REMARK    7  A    between atoms: N_14  and  CA_15 
REMARK    8  A    between atoms: CA_15  and  C_20 
REMARK    9  A    between atoms: CA_15  and  CB_16 
REMARK   10  A    between atoms: CB_16  and  CG_17 
REMARK       I    between atoms: C_20  and  N_22 
REMARK   11  A    between atoms: N_22  and  CA_23 
REMARK   12  A    between atoms: CA_23  and  CB_24 
REMARK   13  A    between atoms: CA_23  and  C_28 
REMARK   14  A    between atoms: CB_24  and  CG_25 
REMARK       I    between atoms: C_28  and  N_30 
REMARK   15  A    between atoms: N_30  and  CA_31 
REMARK   16  A    between atoms: CA_31  and  CB_32 
REMARK   17  A    between atoms: CA_31  and  C_39 
REMARK   18  A    between atoms: CB_32  and  CG_33 
REMARK   19  A    between atoms: CG_33  and  CD_34 
REMARK   20  A    between atoms: CD_34  and  NE_35 
REMARK       I    between atoms: C_39  and  N_41 
REMARK   21  A    between atoms: CA_42  and  C_46 
REMARK       I    between atoms: C_46  and  N_48 
REMARK   22  A    between atoms: N_48  and  CA_49 
REMARK   23  A    between atoms: CA_49  and  C_52 
REMARK   24  A    between atoms: CA_49  and  CB_50 
REMARK       I    between atoms: C_52  and  N_54 
REMARK   25  A    between atoms: N_54  and  CA_55 
REMARK   26  A    between atoms: CA_55  and  C_56 
REMARK       I    between atoms: C_56  and  N_58 
REMARK   27  A    between atoms: N_58  and  CA_59 
REMARK   28  A    between atoms: CA_59  and  C_60 
REMARK       I    between atoms: C_60  and  N_62 
REMARK   29  A    between atoms: N_62  and  CA_63 
REMARK   30  A    between atoms: CA_63  and  CB_64 
REMARK   31  A    between atoms: CA_63  and  C_66 
REMARK       I    between atoms: C_66  and  N_68 
REMARK   32  A    between atoms: N_68  and  CA_69 
REMARK   33  A    between atoms: CA_69  and  C_70 
ROOT
ATOM      1  CA  ARG     5      -5.907 -15.005   8.031  1.00  0.00     0.185 C 
ENDROOT
BRANCH   1   2
ATOM      2  N   ARG     5      -4.934 -16.086   7.788  1.00  0.00    -0.229 NA
ATOM      3  C   ASN     4      -5.166 -17.381   7.938  1.00  0.00     0.275 C 
ATOM      4  O   ASN     4      -6.132 -17.844   8.537  1.00  0.00    -0.268 OA
BRANCH   3   5
ATOM      5  CA  ASN     4      -3.941 -18.250   7.588  1.00  0.00     0.196 C 
BRANCH   5   6
ATOM      6  N   ASN     4      -2.768 -17.849   8.394  1.00  0.00    -0.228 NA
ATOM      7  C   LEU     3      -1.637 -17.396   7.859  1.00  0.00     0.274 C 
ATOM      8  O   LEU     3      -1.434 -17.251   6.650  1.00  0.00    -0.268 OA
BRANCH   7   9
ATOM      9  CA  LEU     3      -0.566 -16.984   8.869  1.00  0.00     0.186 C 
BRANCH   9  10
ATOM     10  N   LEU     3       0.710 -16.734   8.164  1.00  0.00    -0.229 NA
ATOM     11  C   GLY     2       1.726 -17.601   8.173  1.00  0.00     0.277 C 
ATOM     12  O   GLY     2       1.637 -18.732   8.627  1.00  0.00    -0.268 OA
BRANCH  11  13
ATOM     13  CA  GLY     2       2.998 -17.162   7.417  1.00  0.00     0.218 C 
BRANCH  13  14
ATOM     14  N   GLY     2       4.275 -17.840   7.745  1.00  0.00    -0.226 NA
ATOM     15  C   GLU     1       5.461 -17.320   7.408  1.00  0.00     0.289 C 
ATOM     16  O   GLU     1       5.550 -16.188   6.963  1.00  0.00    -0.268 OA
BRANCH  15  17
ATOM     17  CA  GLU     1       6.743 -18.153   7.674  1.00  0.00     0.381 C 
ATOM     18  N   GLU     1       6.933 -19.267   6.728  1.00  0.00     0.626 N 
BRANCH  17  19
ATOM     19  CB  GLU     1       7.957 -17.201   7.668  1.00  0.00     0.060 C 
BRANCH  19  20
ATOM     20  CG  GLU     1       8.470 -16.625   8.996  1.00  0.00     0.100 C 
BRANCH  20  21
ATOM     21  CD  GLU     1       8.554 -15.091   8.988  1.00  0.00     0.185 C 
ATOM     22  OE1 GLU     1       8.941 -14.515  10.020  1.00  0.00    -0.647 OA
ATOM     23  OE2 GLU     1       8.203 -14.485   7.960  1.00  0.00    -0.647 OA
ENDBRANCH  20  21
ENDBRANCH  19  20
ENDBRANCH  17  19
ENDBRANCH  15  17
ENDBRANCH  13  14
ENDBRANCH  11  13
ENDBRANCH   9  10
BRANCH   9  24
ATOM     24  CB  LEU     3      -1.036 -15.718   9.596  1.00  0.00     0.034 C 
BRANCH  24  25
ATOM     25  CG  LEU     3      -0.713 -14.414   8.845  1.00  0.00     0.002 C 
ATOM     26  CD1 LEU     3      -1.981 -13.885   8.177  1.00  0.00     0.000 C 
ATOM     27  CD2 LEU     3      -0.139 -13.356   9.793  1.00  0.00     0.000 C 
ENDBRANCH  24  25
ENDBRANCH   9  24
ENDBRANCH   7   9
ENDBRANCH   5   6
BRANCH   5  28
ATOM     28  CB  ASN     4      -4.235 -19.747   7.787  1.00  0.00     0.126 C 
BRANCH  28  29
ATOM     29  CG  ASN     4      -3.471 -20.664   6.812  1.00  0.00     0.276 C 
ATOM     30  ND2 ASN     4      -3.828 -21.920   6.797  1.00  0.00    -0.107 N 
ATOM     31  OD1 ASN     4      -2.622 -20.270   6.035  1.00  0.00    -0.269 OA
ENDBRANCH  28  29
ENDBRANCH   5  28
ENDBRANCH   3   5
ENDBRANCH   1   2
BRANCH   1  32
ATOM     32  CB  ARG     5      -5.529 -14.214   9.288  1.00  0.00     0.036 C 
BRANCH  32  33
ATOM     33  CG  ARG     5      -6.586 -13.198   9.721  1.00  0.00     0.029 C 
BRANCH  33  34
ATOM     34  CD  ARG     5      -5.900 -11.916  10.181  1.00  0.00     0.145 C 
BRANCH  34  35
ATOM     35  NE  ARG     5      -5.847 -10.898   9.103  1.00  0.00    -0.083 NA
ATOM     36  CZ  ARG     5      -4.719 -10.379   8.596  1.00  0.00     0.782 C 
ATOM     37  NH2 ARG     5      -4.736  -9.654   7.465  1.00  0.00     0.063 N 
ATOM     38  NH1 ARG     5      -3.533 -10.665   9.115  1.00  0.00     0.063 N 
ENDBRANCH  34  35
ENDBRANCH  33  34
ENDBRANCH  32  33
ENDBRANCH   1  32
BRANCH   1  39
ATOM     39  C   ARG     5      -5.939 -14.058   6.816  1.00  0.00     0.256 C 
ATOM     40  O   ARG     5      -5.041 -13.224   6.666  1.00  0.00    -0.270 OA
ATOM     41  N   PRO     6      -6.902 -14.257   5.912  1.00  0.00    -0.312 N 
ATOM     42  CA  PRO     6      -7.097 -13.419   4.707  1.00  0.00     0.165 C 
ATOM     43  CD  PRO     6      -7.817 -15.419   5.874  1.00  0.00     0.105 C 
ATOM     44  CB  PRO     6      -8.365 -13.967   4.050  1.00  0.00     0.034 C 
ATOM     45  CG  PRO     6      -8.341 -15.439   4.437  1.00  0.00     0.027 C 
BRANCH  42  46
ATOM     46  C   PRO     6      -7.268 -11.936   5.076  1.00  0.00     0.272 C 
ATOM     47  N   SER     7      -8.462 -11.489   5.439  1.00  0.00    -0.226 NA
ATOM     48  O   PRO     6      -6.325 -11.152   4.932  1.00  0.00    -0.269 OA
BRANCH  47  49
ATOM     49  CA  SER     7      -9.715 -12.277   5.529  1.00  0.00     0.219 C 
BRANCH  49  50
ATOM     50  C   SER     7     -10.907 -11.536   4.897  1.00  0.00     0.277 C 
ATOM     51  O   SER     7     -11.646 -12.137   4.124  1.00  0.00    -0.268 OA
ATOM     52  N   GLY     8     -11.192 -10.351   5.418  1.00  0.00    -0.226 NA
BRANCH  52  53
ATOM     53  CA  GLY     8     -12.171  -9.427   4.786  1.00  0.00     0.218 C 
BRANCH  53  54
ATOM     54  C   GLY     8     -11.639  -8.360   3.813  1.00  0.00     0.277 C 
ATOM     55  N   GLY     9     -10.319  -8.351   3.576  1.00  0.00    -0.226 NA
ATOM     56  O   GLY     8     -12.412  -7.594   3.261  1.00  0.00    -0.268 OA
BRANCH  55  57
ATOM     57  CA  GLY     9      -9.665  -7.361   2.696  1.00  0.00     0.218 C 
BRANCH  57  58
ATOM     58  C   GLY     9      -8.386  -6.784   3.348  1.00  0.00     0.277 C 
ATOM     59  O   GLY     9      -7.559  -7.549   3.828  1.00  0.00    -0.268 OA
ATOM     60  N   CYS    10      -8.232  -5.483   3.553  1.00  0.00    -0.228 NA
BRANCH  60  61
ATOM     61  CA  CYS    10      -9.195  -4.394   3.261  1.00  0.00     0.198 C 
BRANCH  61  62
ATOM     62  CB  CYS    10      -9.844  -3.832   4.532  1.00  0.00     0.103 C 
ATOM     63  SG  CYS    10     -11.367  -4.634   5.140  1.00  0.00    -0.080 SA
ENDBRANCH  61  62
BRANCH  61  64
ATOM     64  C   CYS    10      -8.571  -3.174   2.581  1.00  0.00     0.275 C 
ATOM     65  O   CYS    10      -8.879  -2.909   1.420  1.00  0.00    -0.268 OA
ATOM     66  N   GLY    11      -7.989  -2.332   3.420  1.00  0.00    -0.225 NA
BRANCH  66  67
ATOM     67  CA  GLY    11      -6.802  -1.558   3.033  1.00  0.00     0.226 C 
BRANCH  67  68
ATOM     68  C   GLY    11      -6.889  -0.265   3.860  1.00  0.00     0.211 C 
ATOM     69  O2  GLY    11      -7.967   0.361   3.768  1.00  0.00    -0.646 OA
ATOM     70  O1  GLY    11      -6.072  -0.156   4.802  1.00  0.00    -0.646 OA
ENDBRANCH  67  68
ENDBRANCH  66  67
ENDBRANCH  61  64
ENDBRANCH  60  61
ENDBRANCH  57  58
ENDBRANCH  55  57
ENDBRANCH  53  54
ENDBRANCH  52  53
ENDBRANCH  49  50
BRANCH  49  71
ATOM     71  CB  SER     7     -10.088 -12.584   6.980  1.00  0.00     0.216 C 
ATOM     72  OG  SER     7      -8.911 -12.614   7.789  1.00  0.00    -0.218 OA
ENDBRANCH  49  71
ENDBRANCH  47  49
ENDBRANCH  42  46
ENDBRANCH   1  39
TORSDOF 33
ENDMDL
MODEL 2
REMARK VINA RESULT:      -6.3      4.633      8.538
REMARK WARNING: 32 MAX_TORS EXCEEDED!!!
REMARK  33 active torsions:
REMARK  status: ('A' for Active; 'I' for Inactive)
REMARK    1  A    between atoms: CA_2  and  C_8 
REMARK    2  A    between atoms: CA_2  and  CB_3 
REMARK    3  A    between atoms: CB_3  and  CG_4 
REMARK    4  A    between atoms: CG_4  and  CD_5 
REMARK       I    between atoms: C_8  and  N_10 
REMARK    5  A    between atoms: N_10  and  CA_11 
REMARK    6  A    between atoms: CA_11  and  C_12 
REMARK       I    between atoms: C_12  and  N_14 
REMARK    7  A    between atoms: N_14  and  CA_15 
REMARK    8  A    between atoms: CA_15  and  C_20 
REMARK    9  A    between atoms: CA_15  and  CB_16 
REMARK   10  A    between atoms: CB_16  and  CG_17 
REMARK       I    between atoms: C_20  and  N_22 
REMARK   11  A    between atoms: N_22  and  CA_23 
REMARK   12  A    between atoms: CA_23  and  CB_24 
REMARK   13  A    between atoms: CA_23  and  C_28 
REMARK   14  A    between atoms: CB_24  and  CG_25 
REMARK       I    between atoms: C_28  and  N_30 
REMARK   15  A    between atoms: N_30  and  CA_31 
REMARK   16  A    between atoms: CA_31  and  CB_32 
REMARK   17  A    between atoms: CA_31  and  C_39 
REMARK   18  A    between atoms: CB_32  and  CG_33 
REMARK   19  A    between atoms: CG_33  and  CD_34 
REMARK   20  A    between atoms: CD_34  and  NE_35 
REMARK       I    between atoms: C_39  and  N_41 
REMARK   21  A    between atoms: CA_42  and  C_46 
REMARK       I    between atoms: C_46  and  N_48 
REMARK   22  A    between atoms: N_48  and  CA_49 
REMARK   23  A    between atoms: CA_49  and  C_52 
REMARK   24  A    between atoms: CA_49  and  CB_50 
REMARK       I    between atoms: C_52  and  N_54 
REMARK   25  A    between atoms: N_54  and  CA_55 
REMARK   26  A    between atoms: CA_55  and  C_56 
REMARK       I    between atoms: C_56  and  N_58 
REMARK   27  A    between atoms: N_58  and  CA_59 
REMARK   28  A    between atoms: CA_59  and  C_60 
REMARK       I    between atoms: C_60  and  N_62 
REMARK   29  A    between atoms: N_62  and  CA_63 
REMARK   30  A    between atoms: CA_63  and  CB_64 
REMARK   31  A    between atoms: CA_63  and  C_66 
REMARK       I    between atoms: C_66  and  N_68 
REMARK   32  A    between atoms: N_68  and  CA_69 
REMARK   33  A    between atoms: CA_69  and  C_70 
ROOT
ATOM      1  CA  ARG     5      -0.776 -16.782   9.134  1.00  0.00     0.185 C 
ENDROOT
BRANCH   1   2
ATOM      2  N   ARG     5      -1.294 -17.779   8.178  1.00  0.00    -0.229 NA
ATOM      3  C   ASN     4      -2.273 -18.638   8.414  1.00  0.00     0.275 C 
ATOM      4  O   ASN     4      -2.711 -18.896   9.530  1.00  0.00    -0.268 OA
BRANCH   3   5
ATOM      5  CA  ASN     4      -2.583 -19.536   7.197  1.00  0.00     0.196 C 
BRANCH   5   6
ATOM      6  N   ASN     4      -1.427 -20.400   6.878  1.00  0.00    -0.228 NA
ATOM      7  C   LEU     3      -0.667 -20.232   5.799  1.00  0.00     0.274 C 
ATOM      8  O   LEU     3      -0.826 -19.347   4.952  1.00  0.00    -0.268 OA
BRANCH   7   9
ATOM      9  CA  LEU     3       0.510 -21.199   5.682  1.00  0.00     0.186 C 
BRANCH   9  10
ATOM     10  N   LEU     3       0.892 -21.680   7.029  1.00  0.00    -0.229 NA
ATOM     11  C   GLY     2       2.125 -21.546   7.524  1.00  0.00     0.277 C 
ATOM     12  O   GLY     2       2.997 -20.884   6.981  1.00  0.00    -0.268 OA
BRANCH  11  13
ATOM     13  CA  GLY     2       2.358 -22.138   8.931  1.00  0.00     0.218 C 
BRANCH  13  14
ATOM     14  N   GLY     2       3.429 -21.548   9.769  1.00  0.00    -0.226 NA
ATOM     15  C   GLU     1       4.650 -22.090   9.845  1.00  0.00     0.289 C 
ATOM     16  O   GLU     1       4.985 -22.997   9.101  1.00  0.00    -0.268 OA
BRANCH  15  17
ATOM     17  CA  GLU     1       5.674 -21.486  10.843  1.00  0.00     0.381 C 
ATOM     18  N   GLU     1       6.940 -21.071  10.214  1.00  0.00     0.626 N 
BRANCH  17  19
ATOM     19  CB  GLU     1       5.003 -20.309  11.582  1.00  0.00     0.060 C 
BRANCH  19  20
ATOM     20  CG  GLU     1       5.479 -19.938  12.995  1.00  0.00     0.100 C 
BRANCH  20  21
ATOM     21  CD  GLU     1       6.155 -18.560  13.052  1.00  0.00     0.185 C 
ATOM     22  OE1 GLU     1       5.457 -17.570  13.337  1.00  0.00    -0.647 OA
ATOM     23  OE2 GLU     1       7.366 -18.484  12.781  1.00  0.00    -0.647 OA
ENDBRANCH  20  21
ENDBRANCH  19  20
ENDBRANCH  17  19
ENDBRANCH  15  17
ENDBRANCH  13  14
ENDBRANCH  11  13
ENDBRANCH   9  10
BRANCH   9  24
ATOM     24  CB  LEU     3       0.096 -22.375   4.790  1.00  0.00     0.034 C 
BRANCH  24  25
ATOM     25  CG  LEU     3      -0.143 -23.687   5.560  1.00  0.00     0.002 C 
ATOM     26  CD1 LEU     3      -1.612 -24.086   5.441  1.00  0.00     0.000 C 
ATOM     27  CD2 LEU     3       0.751 -24.812   5.029  1.00  0.00     0.000 C 
ENDBRANCH  24  25
ENDBRANCH   9  24
ENDBRANCH   7   9
ENDBRANCH   5   6
BRANCH   5  28
ATOM     28  CB  ASN     4      -3.837 -20.393   7.435  1.00  0.00     0.126 C 
BRANCH  28  29
ATOM     29  CG  ASN     4      -5.149 -19.700   7.019  1.00  0.00     0.276 C 
ATOM     30  ND2 ASN     4      -6.035 -19.520   7.962  1.00  0.00    -0.107 N 
ATOM     31  OD1 ASN     4      -5.364 -19.267   5.902  1.00  0.00    -0.269 OA
ENDBRANCH  28  29
ENDBRANCH   5  28
ENDBRANCH   3   5
ENDBRANCH   1   2
BRANCH   1  32
ATOM     32  CB  ARG     5       0.699 -16.480   8.849  1.00  0.00     0.036 C 
BRANCH  32  33
ATOM     33  CG  ARG     5       1.569 -17.728   8.701  1.00  0.00     0.029 C 
BRANCH  33  34
ATOM     34  CD  ARG     5       2.729 -17.429   7.756  1.00  0.00     0.145 C 
BRANCH  34  35
ATOM     35  NE  ARG     5       3.965 -18.147   8.150  1.00  0.00    -0.083 NA
ATOM     36  CZ  ARG     5       5.201 -17.822   7.744  1.00  0.00     0.782 C 
ATOM     37  NH2 ARG     5       6.286 -18.356   8.329  1.00  0.00     0.063 N 
ATOM     38  NH1 ARG     5       5.404 -16.874   6.841  1.00  0.00     0.063 N 
ENDBRANCH  34  35
ENDBRANCH  33  34
ENDBRANCH  32  33
ENDBRANCH   1  32
BRANCH   1  39
ATOM     39  C   ARG     5      -1.600 -15.486   9.023  1.00  0.00     0.256 C 
ATOM     40  O   ARG     5      -1.830 -14.999   7.912  1.00  0.00    -0.270 OA
ATOM     41  N   PRO     6      -2.121 -14.994  10.151  1.00  0.00    -0.312 N 
ATOM     42  CA  PRO     6      -2.907 -13.742  10.228  1.00  0.00     0.165 C 
ATOM     43  CD  PRO     6      -2.141 -15.685  11.459  1.00  0.00     0.105 C 
ATOM     44  CB  PRO     6      -3.191 -13.549  11.718  1.00  0.00     0.034 C 
ATOM     45  CG  PRO     6      -3.246 -14.977  12.243  1.00  0.00     0.027 C 
BRANCH  42  46
ATOM     46  C   PRO     6      -2.119 -12.550   9.661  1.00  0.00     0.272 C 
ATOM     47  N   SER     7      -2.775 -11.549   9.089  1.00  0.00    -0.226 NA
ATOM     48  O   PRO     6      -0.885 -12.577   9.643  1.00  0.00    -0.269 OA
BRANCH  47  49
ATOM     49  CA  SER     7      -4.243 -11.436   8.912  1.00  0.00     0.219 C 
BRANCH  49  50
ATOM     50  C   SER     7      -4.681 -11.801   7.483  1.00  0.00     0.277 C 
ATOM     51  O   SER     7      -4.347 -12.883   7.010  1.00  0.00    -0.268 OA
ATOM     52  N   GLY     8      -5.596 -11.011   6.940  1.00  0.00    -0.226 NA
BRANCH  52  53
ATOM     53  CA  GLY     8      -5.964 -11.104   5.502  1.00  0.00     0.218 C 
BRANCH  53  54
ATOM     54  C   GLY     8      -7.343 -11.686   5.142  1.00  0.00     0.277 C 
ATOM     55  N   GLY     9      -7.378 -12.956   4.712  1.00  0.00    -0.226 NA
ATOM     56  O   GLY     8      -8.350 -11.015   5.292  1.00  0.00    -0.268 OA
BRANCH  55  57
ATOM     57  CA  GLY     9      -8.623 -13.632   4.294  1.00  0.00     0.218 C 
BRANCH  57  58
ATOM     58  C   GLY     9      -8.394 -15.144   4.058  1.00  0.00     0.277 C 
ATOM     59  O   GLY     9      -8.068 -15.534   2.944  1.00  0.00    -0.268 OA
ATOM     60  N   CYS    10      -8.701 -16.049   4.976  1.00  0.00    -0.228 NA
BRANCH  60  61
ATOM     61  CA  CYS    10      -9.319 -15.826   6.306  1.00  0.00     0.198 C 
BRANCH  61  62
ATOM     62  CB  CYS    10     -10.586 -16.664   6.510  1.00  0.00     0.103 C 
ATOM     63  SG  CYS    10     -12.034 -16.295   5.461  1.00  0.00    -0.080 SA
ENDBRANCH  61  62
BRANCH  61  64
ATOM     64  C   CYS    10      -8.419 -16.203   7.484  1.00  0.00     0.275 C 
ATOM     65  O   CYS    10      -8.637 -17.246   8.098  1.00  0.00    -0.268 OA
ATOM     66  N   GLY    11      -7.288 -15.518   7.534  1.00  0.00    -0.225 NA
BRANCH  66  67
ATOM     67  CA  GLY    11      -6.654 -15.173   8.814  1.00  0.00     0.226 C 
BRANCH  67  68
ATOM     68  C   GLY    11      -5.410 -16.072   8.891  1.00  0.00     0.211 C 
ATOM     69  O2  GLY    11      -5.323 -16.786   9.913  1.00  0.00    -0.646 OA
ATOM     70  O1  GLY    11      -4.818 -16.291   7.809  1.00  0.00    -0.646 OA
ENDBRANCH  67  68
ENDBRANCH  66  67
ENDBRANCH  61  64
ENDBRANCH  60  61
ENDBRANCH  57  58
ENDBRANCH  55  57
ENDBRANCH  53  54
ENDBRANCH  52  53
ENDBRANCH  49  50
BRANCH  49  71
ATOM     71  CB  SER     7      -4.739 -10.016   9.192  1.00  0.00     0.216 C 
ATOM     72  OG  SER     7      -3.641  -9.103   9.160  1.00  0.00    -0.218 OA
ENDBRANCH  49  71
ENDBRANCH  47  49
ENDBRANCH  42  46
ENDBRANCH   1  39
TORSDOF 33
ENDMDL
MODEL 3
REMARK VINA RESULT:      -6.2      4.993      8.307
REMARK WARNING: 32 MAX_TORS EXCEEDED!!!
REMARK  33 active torsions:
REMARK  status: ('A' for Active; 'I' for Inactive)
REMARK    1  A    between atoms: CA_2  and  C_8 
REMARK    2  A    between atoms: CA_2  and  CB_3 
REMARK    3  A    between atoms: CB_3  and  CG_4 
REMARK    4  A    between atoms: CG_4  and  CD_5 
REMARK       I    between atoms: C_8  and  N_10 
REMARK    5  A    between atoms: N_10  and  CA_11 
REMARK    6  A    between atoms: CA_11  and  C_12 
REMARK       I    between atoms: C_12  and  N_14 
REMARK    7  A    between atoms: N_14  and  CA_15 
REMARK    8  A    between atoms: CA_15  and  C_20 
REMARK    9  A    between atoms: CA_15  and  CB_16 
REMARK   10  A    between atoms: CB_16  and  CG_17 
REMARK       I    between atoms: C_20  and  N_22 
REMARK   11  A    between atoms: N_22  and  CA_23 
REMARK   12  A    between atoms: CA_23  and  CB_24 
REMARK   13  A    between atoms: CA_23  and  C_28 
REMARK   14  A    between atoms: CB_24  and  CG_25 
REMARK       I    between atoms: C_28  and  N_30 
REMARK   15  A    between atoms: N_30  and  CA_31 
REMARK   16  A    between atoms: CA_31  and  CB_32 
REMARK   17  A    between atoms: CA_31  and  C_39 
REMARK   18  A    between atoms: CB_32  and  CG_33 
REMARK   19  A    between atoms: CG_33  and  CD_34 
REMARK   20  A    between atoms: CD_34  and  NE_35 
REMARK       I    between atoms: C_39  and  N_41 
REMARK   21  A    between atoms: CA_42  and  C_46 
REMARK       I    between atoms: C_46  and  N_48 
REMARK   22  A    between atoms: N_48  and  CA_49 
REMARK   23  A    between atoms: CA_49  and  C_52 
REMARK   24  A    between atoms: CA_49  and  CB_50 
REMARK       I    between atoms: C_52  and  N_54 
REMARK   25  A    between atoms: N_54  and  CA_55 
REMARK   26  A    between atoms: CA_55  and  C_56 
REMARK       I    between atoms: C_56  and  N_58 
REMARK   27  A    between atoms: N_58  and  CA_59 
REMARK   28  A    between atoms: CA_59  and  C_60 
REMARK       I    between atoms: C_60  and  N_62 
REMARK   29  A    between atoms: N_62  and  CA_63 
REMARK   30  A    between atoms: CA_63  and  CB_64 
REMARK   31  A    between atoms: CA_63  and  C_66 
REMARK       I    between atoms: C_66  and  N_68 
REMARK   32  A    between atoms: N_68  and  CA_69 
REMARK   33  A    between atoms: CA_69  and  C_70 
ROOT
ATOM      1  CA  ARG     5      -2.264 -16.815   8.062  1.00  0.00     0.185 C 
ENDROOT
BRANCH   1   2
ATOM      2  N   ARG     5      -3.301 -17.676   7.463  1.00  0.00    -0.229 NA
ATOM      3  C   ASN     4      -3.969 -18.630   8.092  1.00  0.00     0.275 C 
ATOM      4  O   ASN     4      -3.645 -19.097   9.179  1.00  0.00    -0.268 OA
BRANCH   3   5
ATOM      5  CA  ASN     4      -4.995 -19.337   7.182  1.00  0.00     0.196 C 
BRANCH   5   6
ATOM      6  N   ASN     4      -4.317 -20.003   6.050  1.00  0.00    -0.228 NA
ATOM      7  C   LEU     3      -3.667 -21.159   6.167  1.00  0.00     0.274 C 
ATOM      8  O   LEU     3      -3.559 -21.807   7.213  1.00  0.00    -0.268 OA
BRANCH   7   9
ATOM      9  CA  LEU     3      -3.082 -21.704   4.865  1.00  0.00     0.186 C 
BRANCH   9  10
ATOM     10  N   LEU     3      -1.659 -22.054   5.069  1.00  0.00    -0.229 NA
ATOM     11  C   GLY     2      -0.671 -21.158   4.981  1.00  0.00     0.277 C 
ATOM     12  O   GLY     2      -0.865 -19.956   4.880  1.00  0.00    -0.268 OA
BRANCH  11  13
ATOM     13  CA  GLY     2       0.758 -21.704   5.186  1.00  0.00     0.218 C 
BRANCH  13  14
ATOM     14  N   GLY     2       1.473 -21.338   6.432  1.00  0.00    -0.226 NA
ATOM     15  C   GLU     1       1.299 -22.011   7.575  1.00  0.00     0.289 C 
ATOM     16  O   GLU     1       0.671 -23.057   7.600  1.00  0.00    -0.268 OA
BRANCH  15  17
ATOM     17  CA  GLU     1       1.985 -21.485   8.864  1.00  0.00     0.381 C 
ATOM     18  N   GLU     1       1.769 -22.343  10.042  1.00  0.00     0.626 N 
BRANCH  17  19
ATOM     19  CB  GLU     1       3.489 -21.297   8.576  1.00  0.00     0.060 C 
BRANCH  19  20
ATOM     20  CG  GLU     1       4.449 -21.011   9.741  1.00  0.00     0.100 C 
BRANCH  20  21
ATOM     21  CD  GLU     1       4.757 -19.516   9.907  1.00  0.00     0.185 C 
ATOM     22  OE1 GLU     1       3.832 -18.756  10.248  1.00  0.00    -0.647 OA
ATOM     23  OE2 GLU     1       5.909 -19.118   9.662  1.00  0.00    -0.647 OA
ENDBRANCH  20  21
ENDBRANCH  19  20
ENDBRANCH  17  19
ENDBRANCH  15  17
ENDBRANCH  13  14
ENDBRANCH  11  13
ENDBRANCH   9  10
BRANCH   9  24
ATOM     24  CB  LEU     3      -3.885 -22.941   4.444  1.00  0.00     0.034 C 
BRANCH  24  25
ATOM     25  CG  LEU     3      -4.622 -22.777   3.103  1.00  0.00     0.002 C 
ATOM     26  CD1 LEU     3      -5.868 -21.919   3.309  1.00  0.00     0.000 C 
ATOM     27  CD2 LEU     3      -3.714 -22.139   2.046  1.00  0.00     0.000 C 
ENDBRANCH  24  25
ENDBRANCH   9  24
ENDBRANCH   7   9
ENDBRANCH   5   6
BRANCH   5  28
ATOM     28  CB  ASN     4      -5.839 -20.354   7.969  1.00  0.00     0.126 C 
BRANCH  28  29
ATOM     29  CG  ASN     4      -7.314 -19.940   8.132  1.00  0.00     0.276 C 
ATOM     30  ND2 ASN     4      -7.607 -18.704   7.827  1.00  0.00    -0.107 N 
ATOM     31  OD1 ASN     4      -8.202 -20.705   8.458  1.00  0.00    -0.269 OA
ENDBRANCH  28  29
ENDBRANCH   5  28
ENDBRANCH   3   5
ENDBRANCH   1   2
BRANCH   1  32
ATOM     32  CB  ARG     5      -1.056 -16.697   7.127  1.00  0.00     0.036 C 
BRANCH  32  33
ATOM     33  CG  ARG     5      -0.055 -17.846   7.263  1.00  0.00     0.029 C 
BRANCH  33  34
ATOM     34  CD  ARG     5       1.274 -17.302   7.777  1.00  0.00     0.145 C 
BRANCH  34  35
ATOM     35  NE  ARG     5       2.422 -18.128   7.330  1.00  0.00    -0.083 NA
ATOM     36  CZ  ARG     5       3.501 -17.656   6.688  1.00  0.00     0.782 C 
ATOM     37  NH2 ARG     5       4.602 -18.410   6.534  1.00  0.00     0.063 N 
ATOM     38  NH1 ARG     5       3.571 -16.393   6.293  1.00  0.00     0.063 N 
ENDBRANCH  34  35
ENDBRANCH  33  34
ENDBRANCH  32  33
ENDBRANCH   1  32
BRANCH   1  39
ATOM     39  C   ARG     5      -2.849 -15.414   8.328  1.00  0.00     0.256 C 
ATOM     40  O   ARG     5      -3.313 -14.757   7.392  1.00  0.00    -0.270 OA
ATOM     41  N   PRO     6      -2.918 -15.013   9.601  1.00  0.00    -0.312 N 
ATOM     42  CA  PRO     6      -3.419 -13.687  10.028  1.00  0.00     0.165 C 
ATOM     43  CD  PRO     6      -2.666 -15.864  10.784  1.00  0.00     0.105 C 
ATOM     44  CB  PRO     6      -3.210 -13.659  11.542  1.00  0.00     0.034 C 
ATOM     45  CG  PRO     6      -3.350 -15.123  11.934  1.00  0.00     0.027 C 
BRANCH  42  46
ATOM     46  C   PRO     6      -2.644 -12.548   9.345  1.00  0.00     0.272 C 
ATOM     47  N   SER     7      -3.306 -11.640   8.641  1.00  0.00    -0.226 NA
ATOM     48  O   PRO     6      -1.410 -12.542   9.366  1.00  0.00    -0.269 OA
BRANCH  47  49
ATOM     49  CA  SER     7      -4.770 -11.590   8.411  1.00  0.00     0.219 C 
BRANCH  49  50
ATOM     50  C   SER     7      -5.114 -11.470   6.916  1.00  0.00     0.277 C 
ATOM     51  O   SER     7      -5.123 -10.363   6.389  1.00  0.00    -0.268 OA
ATOM     52  N   GLY     8      -5.150 -12.610   6.239  1.00  0.00    -0.226 NA
BRANCH  52  53
ATOM     53  CA  GLY     8      -5.669 -12.683   4.847  1.00  0.00     0.218 C 
BRANCH  53  54
ATOM     54  C   GLY     8      -7.179 -12.904   4.646  1.00  0.00     0.277 C 
ATOM     55  N   GLY     9      -7.572 -14.122   4.246  1.00  0.00    -0.226 NA
ATOM     56  O   GLY     8      -7.968 -12.006   4.890  1.00  0.00    -0.268 OA
BRANCH  55  57
ATOM     57  CA  GLY     9      -8.983 -14.466   3.975  1.00  0.00     0.218 C 
BRANCH  57  58
ATOM     58  C   GLY     9      -9.468 -15.621   4.884  1.00  0.00     0.277 C 
ATOM     59  O   GLY     9      -9.698 -16.717   4.389  1.00  0.00    -0.268 OA
ATOM     60  N   CYS    10      -9.801 -15.420   6.151  1.00  0.00    -0.228 NA
BRANCH  60  61
ATOM     61  CA  CYS    10      -9.818 -14.139   6.897  1.00  0.00     0.198 C 
BRANCH  61  62
ATOM     62  CB  CYS    10     -11.029 -14.022   7.831  1.00  0.00     0.103 C 
ATOM     63  SG  CYS    10     -11.204 -15.258   9.163  1.00  0.00    -0.080 SA
ENDBRANCH  61  62
BRANCH  61  64
ATOM     64  C   CYS    10      -8.609 -13.933   7.813  1.00  0.00     0.275 C 
ATOM     65  O   CYS    10      -8.393 -12.816   8.280  1.00  0.00    -0.268 OA
ATOM     66  N   GLY    11      -8.085 -15.059   8.268  1.00  0.00    -0.225 NA
BRANCH  66  67
ATOM     67  CA  GLY    11      -6.643 -15.188   8.523  1.00  0.00     0.226 C 
BRANCH  67  68
ATOM     68  C   GLY    11      -6.544 -15.685   9.974  1.00  0.00     0.211 C 
ATOM     69  O2  GLY    11      -5.958 -16.778  10.130  1.00  0.00    -0.646 OA
ATOM     70  O1  GLY    11      -6.706 -14.822  10.866  1.00  0.00    -0.646 OA
ENDBRANCH  67  68
ENDBRANCH  66  67
ENDBRANCH  61  64
ENDBRANCH  60  61
ENDBRANCH  57  58
ENDBRANCH  55  57
ENDBRANCH  53  54
ENDBRANCH  52  53
ENDBRANCH  49  50
BRANCH  49  71
ATOM     71  CB  SER     7      -5.414 -10.399   9.124  1.00  0.00     0.216 C 
ATOM     72  OG  SER     7      -4.461  -9.346   9.269  1.00  0.00    -0.218 OA
ENDBRANCH  49  71
ENDBRANCH  47  49
ENDBRANCH  42  46
ENDBRANCH   1  39
TORSDOF 33
ENDMDL
MODEL 4
REMARK VINA RESULT:      -6.0     12.474     15.649
REMARK WARNING: 32 MAX_TORS EXCEEDED!!!
REMARK  33 active torsions:
REMARK  status: ('A' for Active; 'I' for Inactive)
REMARK    1  A    between atoms: CA_2  and  C_8 
REMARK    2  A    between atoms: CA_2  and  CB_3 
REMARK    3  A    between atoms: CB_3  and  CG_4 
REMARK    4  A    between atoms: CG_4  and  CD_5 
REMARK       I    between atoms: C_8  and  N_10 
REMARK    5  A    between atoms: N_10  and  CA_11 
REMARK    6  A    between atoms: CA_11  and  C_12 
REMARK       I    between atoms: C_12  and  N_14 
REMARK    7  A    between atoms: N_14  and  CA_15 
REMARK    8  A    between atoms: CA_15  and  C_20 
REMARK    9  A    between atoms: CA_15  and  CB_16 
REMARK   10  A    between atoms: CB_16  and  CG_17 
REMARK       I    between atoms: C_20  and  N_22 
REMARK   11  A    between atoms: N_22  and  CA_23 
REMARK   12  A    between atoms: CA_23  and  CB_24 
REMARK   13  A    between atoms: CA_23  and  C_28 
REMARK   14  A    between atoms: CB_24  and  CG_25 
REMARK       I    between atoms: C_28  and  N_30 
REMARK   15  A    between atoms: N_30  and  CA_31 
REMARK   16  A    between atoms: CA_31  and  CB_32 
REMARK   17  A    between atoms: CA_31  and  C_39 
REMARK   18  A    between atoms: CB_32  and  CG_33 
REMARK   19  A    between atoms: CG_33  and  CD_34 
REMARK   20  A    between atoms: CD_34  and  NE_35 
REMARK       I    between atoms: C_39  and  N_41 
REMARK   21  A    between atoms: CA_42  and  C_46 
REMARK       I    between atoms: C_46  and  N_48 
REMARK   22  A    between atoms: N_48  and  CA_49 
REMARK   23  A    between atoms: CA_49  and  C_52 
REMARK   24  A    between atoms: CA_49  and  CB_50 
REMARK       I    between atoms: C_52  and  N_54 
REMARK   25  A    between atoms: N_54  and  CA_55 
REMARK   26  A    between atoms: CA_55  and  C_56 
REMARK       I    between atoms: C_56  and  N_58 
REMARK   27  A    between atoms: N_58  and  CA_59 
REMARK   28  A    between atoms: CA_59  and  C_60 
REMARK       I    between atoms: C_60  and  N_62 
REMARK   29  A    between atoms: N_62  and  CA_63 
REMARK   30  A    between atoms: CA_63  and  CB_64 
REMARK   31  A    between atoms: CA_63  and  C_66 
REMARK       I    between atoms: C_66  and  N_68 
REMARK   32  A    between atoms: N_68  and  CA_69 
REMARK   33  A    between atoms: CA_69  and  C_70 
ROOT
ATOM      1  CA  ARG     5      -1.595   0.787  11.047  1.00  0.00     0.185 C 
ENDROOT
BRANCH   1   2
ATOM      2  N   ARG     5      -0.562  -0.157  10.584  1.00  0.00    -0.229 NA
ATOM      3  C   ASN     4       0.078  -1.034  11.342  1.00  0.00     0.275 C 
ATOM      4  O   ASN     4       0.084  -1.010  12.569  1.00  0.00    -0.268 OA
BRANCH   3   5
ATOM      5  CA  ASN     4       1.089  -1.884  10.545  1.00  0.00     0.196 C 
BRANCH   5   6
ATOM      6  N   ASN     4       2.383  -1.180  10.425  1.00  0.00    -0.228 NA
ATOM      7  C   LEU     3       2.732  -0.472   9.353  1.00  0.00     0.274 C 
ATOM      8  O   LEU     3       2.028  -0.314   8.351  1.00  0.00    -0.268 OA
BRANCH   7   9
ATOM      9  CA  LEU     3       4.090   0.222   9.453  1.00  0.00     0.186 C 
BRANCH   9  10
ATOM     10  N   LEU     3       4.273   1.122   8.292  1.00  0.00    -0.229 NA
ATOM     11  C   GLY     2       5.457   1.318   7.707  1.00  0.00     0.277 C 
ATOM     12  O   GLY     2       6.453   0.662   7.973  1.00  0.00    -0.268 OA
BRANCH  11  13
ATOM     13  CA  GLY     2       5.473   2.319   6.532  1.00  0.00     0.218 C 
BRANCH  13  14
ATOM     14  N   GLY     2       6.707   2.418   5.715  1.00  0.00    -0.226 NA
ATOM     15  C   GLU     1       7.612   3.383   5.911  1.00  0.00     0.289 C 
ATOM     16  O   GLU     1       7.544   4.125   6.877  1.00  0.00    -0.268 OA
BRANCH  15  17
ATOM     17  CA  GLU     1       8.811   3.493   4.931  1.00  0.00     0.381 C 
ATOM     18  N   GLU     1      10.073   3.886   5.581  1.00  0.00     0.626 N 
BRANCH  17  19
ATOM     19  CB  GLU     1       8.959   2.150   4.186  1.00  0.00     0.060 C 
BRANCH  19  20
ATOM     20  CG  GLU     1      10.364   1.620   3.861  1.00  0.00     0.100 C 
BRANCH  20  21
ATOM     21  CD  GLU     1      10.656   0.264   4.523  1.00  0.00     0.185 C 
ATOM     22  OE1 GLU     1      11.200  -0.622   3.840  1.00  0.00    -0.647 OA
ATOM     23  OE2 GLU     1      10.309   0.095   5.705  1.00  0.00    -0.647 OA
ENDBRANCH  20  21
ENDBRANCH  19  20
ENDBRANCH  17  19
ENDBRANCH  15  17
ENDBRANCH  13  14
ENDBRANCH  11  13
ENDBRANCH   9  10
BRANCH   9  24
ATOM     24  CB  LEU     3       4.142   1.017  10.763  1.00  0.00     0.034 C 
BRANCH  24  25
ATOM     25  CG  LEU     3       5.383   0.718  11.623  1.00  0.00     0.002 C 
ATOM     26  CD1 LEU     3       5.887  -0.691  11.317  1.00  0.00     0.000 C 
ATOM     27  CD2 LEU     3       6.496   1.740  11.366  1.00  0.00     0.000 C 
ENDBRANCH  24  25
ENDBRANCH   9  24
ENDBRANCH   7   9
ENDBRANCH   5   6
BRANCH   5  28
ATOM     28  CB  ASN     4       1.294  -3.266  11.188  1.00  0.00     0.126 C 
BRANCH  28  29
ATOM     29  CG  ASN     4       2.659  -3.429  11.886  1.00  0.00     0.276 C 
ATOM     30  ND2 ASN     4       3.588  -4.046  11.205  1.00  0.00    -0.107 N 
ATOM     31  OD1 ASN     4       2.921  -2.966  12.979  1.00  0.00    -0.269 OA
ENDBRANCH  28  29
ENDBRANCH   5  28
ENDBRANCH   3   5
ENDBRANCH   1   2
BRANCH   1  32
ATOM     32  CB  ARG     5      -1.165   2.232  10.772  1.00  0.00     0.036 C 
BRANCH  32  33
ATOM     33  CG  ARG     5       0.082   2.350   9.894  1.00  0.00     0.029 C 
BRANCH  33  34
ATOM     34  CD  ARG     5       0.752   3.697  10.143  1.00  0.00     0.145 C 
BRANCH  34  35
ATOM     35  NE  ARG     5       2.089   3.778   9.505  1.00  0.00    -0.083 NA
ATOM     36  CZ  ARG     5       2.486   4.760   8.682  1.00  0.00     0.782 C 
ATOM     37  NH2 ARG     5       3.778   4.899   8.341  1.00  0.00     0.063 N 
ATOM     38  NH1 ARG     5       1.647   5.701   8.275  1.00  0.00     0.063 N 
ENDBRANCH  34  35
ENDBRANCH  33  34
ENDBRANCH  32  33
ENDBRANCH   1  32
BRANCH   1  39
ATOM     39  C   ARG     5      -2.922   0.497  10.321  1.00  0.00     0.256 C 
ATOM     40  O   ARG     5      -3.078   0.875   9.156  1.00  0.00    -0.270 OA
ATOM     41  N   PRO     6      -3.820  -0.254  10.966  1.00  0.00    -0.312 N 
ATOM     42  CA  PRO     6      -5.155  -0.599  10.428  1.00  0.00     0.165 C 
ATOM     43  CD  PRO     6      -3.577  -0.988  12.227  1.00  0.00     0.105 C 
ATOM     44  CB  PRO     6      -5.842  -1.374  11.553  1.00  0.00     0.034 C 
ATOM     45  CG  PRO     6      -4.678  -2.049  12.263  1.00  0.00     0.027 C 
BRANCH  42  46
ATOM     46  C   PRO     6      -5.955   0.663  10.062  1.00  0.00     0.272 C 
ATOM     47  N   SER     7      -6.629   0.698   8.921  1.00  0.00    -0.226 NA
ATOM     48  O   PRO     6      -5.882   1.669  10.774  1.00  0.00    -0.269 OA
BRANCH  47  49
ATOM     49  CA  SER     7      -6.703  -0.376   7.901  1.00  0.00     0.219 C 
BRANCH  49  50
ATOM     50  C   SER     7      -6.349   0.140   6.495  1.00  0.00     0.277 C 
ATOM     51  O   SER     7      -5.172   0.201   6.156  1.00  0.00    -0.268 OA
ATOM     52  N   GLY     8      -7.366   0.264   5.653  1.00  0.00    -0.226 NA
BRANCH  52  53
ATOM     53  CA  GLY     8      -7.221   0.944   4.338  1.00  0.00     0.218 C 
BRANCH  53  54
ATOM     54  C   GLY     8      -8.034   2.227   4.090  1.00  0.00     0.277 C 
ATOM     55  N   GLY     9      -7.986   3.175   5.038  1.00  0.00    -0.226 NA
ATOM     56  O   GLY     8      -8.652   2.370   3.048  1.00  0.00    -0.268 OA
BRANCH  55  57
ATOM     57  CA  GLY     9      -8.746   4.439   4.953  1.00  0.00     0.218 C 
BRANCH  57  58
ATOM     58  C   GLY     9      -8.183   5.504   5.924  1.00  0.00     0.277 C 
ATOM     59  O   GLY     9      -8.953   6.122   6.648  1.00  0.00    -0.268 OA
ATOM     60  N   CYS    10      -6.916   5.888   5.882  1.00  0.00    -0.228 NA
BRANCH  60  61
ATOM     61  CA  CYS    10      -5.859   5.444   4.940  1.00  0.00     0.198 C 
BRANCH  61  62
ATOM     62  CB  CYS    10      -4.939   6.592   4.509  1.00  0.00     0.103 C 
ATOM     63  SG  CYS    10      -4.283   6.568   2.806  1.00  0.00    -0.080 SA
ENDBRANCH  61  62
BRANCH  61  64
ATOM     64  C   CYS    10      -4.910   4.392   5.518  1.00  0.00     0.275 C 
ATOM     65  O   CYS    10      -4.685   3.367   4.876  1.00  0.00    -0.268 OA
ATOM     66  N   GLY    11      -4.172   4.832   6.524  1.00  0.00    -0.225 NA
BRANCH  66  67
ATOM     67  CA  GLY    11      -3.769   3.948   7.627  1.00  0.00     0.226 C 
BRANCH  67  68
ATOM     68  C   GLY    11      -2.232   3.959   7.597  1.00  0.00     0.211 C 
ATOM     69  O2  GLY    11      -1.700   3.053   6.921  1.00  0.00    -0.646 OA
ATOM     70  O1  GLY    11      -1.681   5.038   7.914  1.00  0.00    -0.646 OA
ENDBRANCH  67  68
ENDBRANCH  66  67
ENDBRANCH  61  64
ENDBRANCH  60  61
ENDBRANCH  57  58
ENDBRANCH  55  57
ENDBRANCH  53  54
ENDBRANCH  52  53
ENDBRANCH  49  50
BRANCH  49  71
ATOM     71  CB  SER     7      -8.104  -0.986   7.823  1.00  0.00     0.216 C 
ATOM     72  OG  SER     7      -8.194  -2.113   8.696  1.00  0.00    -0.218 OA
ENDBRANCH  49  71
ENDBRANCH  47  49
ENDBRANCH  42  46
ENDBRANCH   1  39
TORSDOF 33
ENDMDL
MODEL 5
REMARK VINA RESULT:      -6.0      4.951      8.861
REMARK WARNING: 32 MAX_TORS EXCEEDED!!!
REMARK  33 active torsions:
REMARK  status: ('A' for Active; 'I' for Inactive)
REMARK    1  A    between atoms: CA_2  and  C_8 
REMARK    2  A    between atoms: CA_2  and  CB_3 
REMARK    3  A    between atoms: CB_3  and  CG_4 
REMARK    4  A    between atoms: CG_4  and  CD_5 
REMARK       I    between atoms: C_8  and  N_10 
REMARK    5  A    between atoms: N_10  and  CA_11 
REMARK    6  A    between atoms: CA_11  and  C_12 
REMARK       I    between atoms: C_12  and  N_14 
REMARK    7  A    between atoms: N_14  and  CA_15 
REMARK    8  A    between atoms: CA_15  and  C_20 
REMARK    9  A    between atoms: CA_15  and  CB_16 
REMARK   10  A    between atoms: CB_16  and  CG_17 
REMARK       I    between atoms: C_20  and  N_22 
REMARK   11  A    between atoms: N_22  and  CA_23 
REMARK   12  A    between atoms: CA_23  and  CB_24 
REMARK   13  A    between atoms: CA_23  and  C_28 
REMARK   14  A    between atoms: CB_24  and  CG_25 
REMARK       I    between atoms: C_28  and  N_30 
REMARK   15  A    between atoms: N_30  and  CA_31 
REMARK   16  A    between atoms: CA_31  and  CB_32 
REMARK   17  A    between atoms: CA_31  and  C_39 
REMARK   18  A    between atoms: CB_32  and  CG_33 
REMARK   19  A    between atoms: CG_33  and  CD_34 
REMARK   20  A    between atoms: CD_34  and  NE_35 
REMARK       I    between atoms: C_39  and  N_41 
REMARK   21  A    between atoms: CA_42  and  C_46 
REMARK       I    between atoms: C_46  and  N_48 
REMARK   22  A    between atoms: N_48  and  CA_49 
REMARK   23  A    between atoms: CA_49  and  C_52 
REMARK   24  A    between atoms: CA_49  and  CB_50 
REMARK       I    between atoms: C_52  and  N_54 
REMARK   25  A    between atoms: N_54  and  CA_55 
REMARK   26  A    between atoms: CA_55  and  C_56 
REMARK       I    between atoms: C_56  and  N_58 
REMARK   27  A    between atoms: N_58  and  CA_59 
REMARK   28  A    between atoms: CA_59  and  C_60 
REMARK       I    between atoms: C_60  and  N_62 
REMARK   29  A    between atoms: N_62  and  CA_63 
REMARK   30  A    between atoms: CA_63  and  CB_64 
REMARK   31  A    between atoms: CA_63  and  C_66 
REMARK       I    between atoms: C_66  and  N_68 
REMARK   32  A    between atoms: N_68  and  CA_69 
REMARK   33  A    between atoms: CA_69  and  C_70 
ROOT
ATOM      1  CA  ARG     5      -2.008 -16.667   8.040  1.00  0.00     0.185 C 
ENDROOT
BRANCH   1   2
ATOM      2  N   ARG     5      -3.107 -17.527   7.564  1.00  0.00    -0.229 NA
ATOM      3  C   ASN     4      -3.229 -18.824   7.798  1.00  0.00     0.275 C 
ATOM      4  O   ASN     4      -2.326 -19.536   8.225  1.00  0.00    -0.268 OA
BRANCH   3   5
ATOM      5  CA  ASN     4      -4.503 -19.426   7.168  1.00  0.00     0.196 C 
BRANCH   5   6
ATOM      6  N   ASN     4      -4.267 -20.823   6.747  1.00  0.00    -0.228 NA
ATOM      7  C   LEU     3      -4.528 -21.269   5.521  1.00  0.00     0.274 C 
ATOM      8  O   LEU     3      -4.983 -20.583   4.601  1.00  0.00    -0.268 OA
BRANCH   7   9
ATOM      9  CA  LEU     3      -4.162 -22.732   5.276  1.00  0.00     0.186 C 
BRANCH   9  10
ATOM     10  N   LEU     3      -2.823 -22.810   4.651  1.00  0.00    -0.229 NA
ATOM     11  C   GLY     2      -2.590 -23.478   3.517  1.00  0.00     0.277 C 
ATOM     12  O   GLY     2      -3.478 -23.946   2.821  1.00  0.00    -0.268 OA
BRANCH  11  13
ATOM     13  CA  GLY     2      -1.127 -23.486   3.026  1.00  0.00     0.218 C 
BRANCH  13  14
ATOM     14  N   GLY     2      -0.072 -23.908   3.979  1.00  0.00    -0.226 NA
ATOM     15  C   GLU     1       0.631 -25.033   3.807  1.00  0.00     0.289 C 
ATOM     16  O   GLU     1       0.551 -25.674   2.772  1.00  0.00    -0.268 OA
BRANCH  15  17
ATOM     17  CA  GLU     1       1.625 -25.469   4.916  1.00  0.00     0.381 C 
ATOM     18  N   GLU     1       2.804 -26.190   4.404  1.00  0.00     0.626 N 
BRANCH  17  19
ATOM     19  CB  GLU     1       2.039 -24.221   5.723  1.00  0.00     0.060 C 
BRANCH  19  20
ATOM     20  CG  GLU     1       3.258 -23.403   5.273  1.00  0.00     0.100 C 
BRANCH  20  21
ATOM     21  CD  GLU     1       4.408 -23.439   6.291  1.00  0.00     0.185 C 
ATOM     22  OE1 GLU     1       4.693 -24.527   6.822  1.00  0.00    -0.647 OA
ATOM     23  OE2 GLU     1       4.987 -22.374   6.568  1.00  0.00    -0.647 OA
ENDBRANCH  20  21
ENDBRANCH  19  20
ENDBRANCH  17  19
ENDBRANCH  15  17
ENDBRANCH  13  14
ENDBRANCH  11  13
ENDBRANCH   9  10
BRANCH   9  24
ATOM     24  CB  LEU     3      -4.172 -23.475   6.618  1.00  0.00     0.034 C 
BRANCH  24  25
ATOM     25  CG  LEU     3      -5.165 -24.650   6.671  1.00  0.00     0.002 C 
ATOM     26  CD1 LEU     3      -4.631 -25.805   5.825  1.00  0.00     0.000 C 
ATOM     27  CD2 LEU     3      -5.395 -25.118   8.112  1.00  0.00     0.000 C 
ENDBRANCH  24  25
ENDBRANCH   9  24
ENDBRANCH   7   9
ENDBRANCH   5   6
BRANCH   5  28
ATOM     28  CB  ASN     4      -5.697 -19.356   8.135  1.00  0.00     0.126 C 
BRANCH  28  29
ATOM     29  CG  ASN     4      -7.063 -19.266   7.428  1.00  0.00     0.276 C 
ATOM     30  ND2 ASN     4      -7.134 -18.454   6.407  1.00  0.00    -0.107 N 
ATOM     31  OD1 ASN     4      -8.028 -19.943   7.726  1.00  0.00    -0.269 OA
ENDBRANCH  28  29
ENDBRANCH   5  28
ENDBRANCH   3   5
ENDBRANCH   1   2
BRANCH   1  32
ATOM     32  CB  ARG     5      -0.871 -16.629   7.013  1.00  0.00     0.036 C 
BRANCH  32  33
ATOM     33  CG  ARG     5       0.500 -16.326   7.619  1.00  0.00     0.029 C 
BRANCH  33  34
ATOM     34  CD  ARG     5       1.345 -17.595   7.622  1.00  0.00     0.145 C 
BRANCH  34  35
ATOM     35  NE  ARG     5       0.687 -18.701   6.885  1.00  0.00    -0.083 NA
ATOM     36  CZ  ARG     5       1.197 -19.934   6.740  1.00  0.00     0.782 C 
ATOM     37  NH2 ARG     5       0.444 -20.945   6.278  1.00  0.00     0.063 N 
ATOM     38  NH1 ARG     5       2.417 -20.230   7.164  1.00  0.00     0.063 N 
ENDBRANCH  34  35
ENDBRANCH  33  34
ENDBRANCH  32  33
ENDBRANCH   1  32
BRANCH   1  39
ATOM     39  C   ARG     5      -2.537 -15.240   8.278  1.00  0.00     0.256 C 
ATOM     40  O   ARG     5      -2.818 -14.522   7.314  1.00  0.00    -0.270 OA
ATOM     41  N   PRO     6      -2.765 -14.876   9.544  1.00  0.00    -0.312 N 
ATOM     42  CA  PRO     6      -3.240 -13.534   9.950  1.00  0.00     0.165 C 
ATOM     43  CD  PRO     6      -2.741 -15.781  10.714  1.00  0.00     0.105 C 
ATOM     44  CB  PRO     6      -3.251 -13.569  11.479  1.00  0.00     0.034 C 
ATOM     45  CG  PRO     6      -3.537 -15.033  11.784  1.00  0.00     0.027 C 
BRANCH  42  46
ATOM     46  C   PRO     6      -2.304 -12.428   9.434  1.00  0.00     0.272 C 
ATOM     47  N   SER     7      -2.825 -11.317   8.933  1.00  0.00    -0.226 NA
ATOM     48  O   PRO     6      -1.086 -12.621   9.388  1.00  0.00    -0.269 OA
BRANCH  47  49
ATOM     49  CA  SER     7      -4.266 -10.995   8.794  1.00  0.00     0.219 C 
BRANCH  49  50
ATOM     50  C   SER     7      -4.795 -11.319   7.386  1.00  0.00     0.277 C 
ATOM     51  O   SER     7      -4.600 -12.434   6.913  1.00  0.00    -0.268 OA
ATOM     52  N   GLY     8      -5.638 -10.436   6.869  1.00  0.00    -0.226 NA
BRANCH  52  53
ATOM     53  CA  GLY     8      -6.069 -10.497   5.447  1.00  0.00     0.218 C 
BRANCH  53  54
ATOM     54  C   GLY     8      -7.346 -11.286   5.108  1.00  0.00     0.277 C 
ATOM     55  N   GLY     9      -7.191 -12.548   4.683  1.00  0.00    -0.226 NA
ATOM     56  O   GLY     8      -8.442 -10.776   5.270  1.00  0.00    -0.268 OA
BRANCH  55  57
ATOM     57  CA  GLY     9      -8.324 -13.409   4.286  1.00  0.00     0.218 C 
BRANCH  57  58
ATOM     58  C   GLY     9      -8.089 -14.881   4.703  1.00  0.00     0.277 C 
ATOM     59  O   GLY     9      -8.036 -15.748   3.841  1.00  0.00    -0.268 OA
ATOM     60  N   CYS    10      -8.111 -15.259   5.974  1.00  0.00    -0.228 NA
BRANCH  60  61
ATOM     61  CA  CYS    10      -8.383 -14.423   7.169  1.00  0.00     0.198 C 
BRANCH  61  62
ATOM     62  CB  CYS    10      -9.604 -14.911   7.957  1.00  0.00     0.103 C 
ATOM     63  SG  CYS    10      -9.501 -16.539   8.775  1.00  0.00    -0.080 SA
ENDBRANCH  61  62
BRANCH  61  64
ATOM     64  C   CYS    10      -7.247 -14.412   8.195  1.00  0.00     0.275 C 
ATOM     65  O   CYS    10      -6.220 -15.046   7.961  1.00  0.00    -0.268 OA
ATOM     66  N   GLY    11      -7.358 -13.457   9.104  1.00  0.00    -0.225 NA
BRANCH  66  67
ATOM     67  CA  GLY    11      -6.883 -13.650  10.482  1.00  0.00     0.226 C 
BRANCH  67  68
ATOM     68  C   GLY    11      -8.042 -13.166  11.367  1.00  0.00     0.211 C 
ATOM     69  O2  GLY    11      -9.066 -13.883  11.352  1.00  0.00    -0.646 OA
ATOM     70  O1  GLY    11      -7.744 -12.357  12.276  1.00  0.00    -0.646 OA
ENDBRANCH  67  68
ENDBRANCH  66  67
ENDBRANCH  61  64
ENDBRANCH  60  61
ENDBRANCH  57  58
ENDBRANCH  55  57
ENDBRANCH  53  54
ENDBRANCH  52  53
ENDBRANCH  49  50
BRANCH  49  71
ATOM     71  CB  SER     7      -4.543  -9.514   9.056  1.00  0.00     0.216 C 
ATOM     72  OG  SER     7      -3.317  -8.782   9.057  1.00  0.00    -0.218 OA
ENDBRANCH  49  71
ENDBRANCH  47  49
ENDBRANCH  42  46
ENDBRANCH   1  39
TORSDOF 33
ENDMDL
MODEL 6
REMARK VINA RESULT:      -6.0      4.537     15.125
REMARK WARNING: 32 MAX_TORS EXCEEDED!!!
REMARK  33 active torsions:
REMARK  status: ('A' for Active; 'I' for Inactive)
REMARK    1  A    between atoms: CA_2  and  C_8 
REMARK    2  A    between atoms: CA_2  and  CB_3 
REMARK    3  A    between atoms: CB_3  and  CG_4 
REMARK    4  A    between atoms: CG_4  and  CD_5 
REMARK       I    between atoms: C_8  and  N_10 
REMARK    5  A    between atoms: N_10  and  CA_11 
REMARK    6  A    between atoms: CA_11  and  C_12 
REMARK       I    between atoms: C_12  and  N_14 
REMARK    7  A    between atoms: N_14  and  CA_15 
REMARK    8  A    between atoms: CA_15  and  C_20 
REMARK    9  A    between atoms: CA_15  and  CB_16 
REMARK   10  A    between atoms: CB_16  and  CG_17 
REMARK       I    between atoms: C_20  and  N_22 
REMARK   11  A    between atoms: N_22  and  CA_23 
REMARK   12  A    between atoms: CA_23  and  CB_24 
REMARK   13  A    between atoms: CA_23  and  C_28 
REMARK   14  A    between atoms: CB_24  and  CG_25 
REMARK       I    between atoms: C_28  and  N_30 
REMARK   15  A    between atoms: N_30  and  CA_31 
REMARK   16  A    between atoms: CA_31  and  CB_32 
REMARK   17  A    between atoms: CA_31  and  C_39 
REMARK   18  A    between atoms: CB_32  and  CG_33 
REMARK   19  A    between atoms: CG_33  and  CD_34 
REMARK   20  A    between atoms: CD_34  and  NE_35 
REMARK       I    between atoms: C_39  and  N_41 
REMARK   21  A    between atoms: CA_42  and  C_46 
REMARK       I    between atoms: C_46  and  N_48 
REMARK   22  A    between atoms: N_48  and  CA_49 
REMARK   23  A    between atoms: CA_49  and  C_52 
REMARK   24  A    between atoms: CA_49  and  CB_50 
REMARK       I    between atoms: C_52  and  N_54 
REMARK   25  A    between atoms: N_54  and  CA_55 
REMARK   26  A    between atoms: CA_55  and  C_56 
REMARK       I    between atoms: C_56  and  N_58 
REMARK   27  A    between atoms: N_58  and  CA_59 
REMARK   28  A    between atoms: CA_59  and  C_60 
REMARK       I    between atoms: C_60  and  N_62 
REMARK   29  A    between atoms: N_62  and  CA_63 
REMARK   30  A    between atoms: CA_63  and  CB_64 
REMARK   31  A    between atoms: CA_63  and  C_66 
REMARK       I    between atoms: C_66  and  N_68 
REMARK   32  A    between atoms: N_68  and  CA_69 
REMARK   33  A    between atoms: CA_69  and  C_70 
ROOT
ATOM      1  CA  ARG     5      -1.026 -19.453   6.765  1.00  0.00     0.185 C 
ENDROOT
BRANCH   1   2
ATOM      2  N   ARG     5      -1.938 -19.188   7.892  1.00  0.00    -0.229 NA
ATOM      3  C   ASN     4      -3.256 -19.313   7.865  1.00  0.00     0.275 C 
ATOM      4  O   ASN     4      -3.917 -19.420   6.837  1.00  0.00    -0.268 OA
BRANCH   3   5
ATOM      5  CA  ASN     4      -3.914 -18.971   9.217  1.00  0.00     0.196 C 
BRANCH   5   6
ATOM      6  N   ASN     4      -3.546 -17.606   9.648  1.00  0.00    -0.228 NA
ATOM      7  C   LEU     3      -3.934 -16.508   9.003  1.00  0.00     0.274 C 
ATOM      8  O   LEU     3      -4.644 -16.495   7.993  1.00  0.00    -0.268 OA
BRANCH   7   9
ATOM      9  CA  LEU     3      -3.490 -15.194   9.643  1.00  0.00     0.186 C 
BRANCH   9  10
ATOM     10  N   LEU     3      -4.491 -14.141   9.360  1.00  0.00    -0.229 NA
ATOM     11  C   GLY     2      -4.157 -12.912   8.957  1.00  0.00     0.277 C 
ATOM     12  O   GLY     2      -3.019 -12.597   8.640  1.00  0.00    -0.268 OA
BRANCH  11  13
ATOM     13  CA  GLY     2      -5.327 -11.928   8.744  1.00  0.00     0.218 C 
BRANCH  13  14
ATOM     14  N   GLY     2      -5.781 -11.674   7.356  1.00  0.00    -0.226 NA
ATOM     15  C   GLU     1      -5.363 -10.613   6.656  1.00  0.00     0.289 C 
ATOM     16  O   GLU     1      -4.463  -9.900   7.068  1.00  0.00    -0.268 OA
BRANCH  15  17
ATOM     17  CA  GLU     1      -5.984 -10.349   5.258  1.00  0.00     0.381 C 
ATOM     18  N   GLU     1      -7.063 -11.288   4.903  1.00  0.00     0.626 N 
BRANCH  17  19
ATOM     19  CB  GLU     1      -6.476  -8.887   5.207  1.00  0.00     0.060 C 
BRANCH  19  20
ATOM     20  CG  GLU     1      -7.634  -8.514   4.269  1.00  0.00     0.100 C 
BRANCH  20  21
ATOM     21  CD  GLU     1      -7.412  -7.172   3.555  1.00  0.00     0.185 C 
ATOM     22  OE1 GLU     1      -8.030  -6.174   3.966  1.00  0.00    -0.647 OA
ATOM     23  OE2 GLU     1      -6.647  -7.143   2.575  1.00  0.00    -0.647 OA
ENDBRANCH  20  21
ENDBRANCH  19  20
ENDBRANCH  17  19
ENDBRANCH  15  17
ENDBRANCH  13  14
ENDBRANCH  11  13
ENDBRANCH   9  10
BRANCH   9  24
ATOM     24  CB  LEU     3      -3.346 -15.405  11.155  1.00  0.00     0.034 C 
BRANCH  24  25
ATOM     25  CG  LEU     3      -2.027 -14.866  11.736  1.00  0.00     0.002 C 
ATOM     26  CD1 LEU     3      -0.910 -15.039  10.708  1.00  0.00     0.000 C 
ATOM     27  CD2 LEU     3      -2.155 -13.389  12.127  1.00  0.00     0.000 C 
ENDBRANCH  24  25
ENDBRANCH   9  24
ENDBRANCH   7   9
ENDBRANCH   5   6
BRANCH   5  28
ATOM     28  CB  ASN     4      -5.445 -19.112   9.150  1.00  0.00     0.126 C 
BRANCH  28  29
ATOM     29  CG  ASN     4      -6.056 -19.816  10.377  1.00  0.00     0.276 C 
ATOM     30  ND2 ASN     4      -6.680 -20.941  10.148  1.00  0.00    -0.107 N 
ATOM     31  OD1 ASN     4      -5.931 -19.419  11.520  1.00  0.00    -0.269 OA
ENDBRANCH  28  29
ENDBRANCH   5  28
ENDBRANCH   3   5
ENDBRANCH   1   2
BRANCH   1  32
ATOM     32  CB  ARG     5      -0.322 -18.163   6.327  1.00  0.00     0.036 C 
BRANCH  32  33
ATOM     33  CG  ARG     5      -0.577 -16.974   7.255  1.00  0.00     0.029 C 
BRANCH  33  34
ATOM     34  CD  ARG     5       0.757 -16.403   7.725  1.00  0.00     0.145 C 
BRANCH  34  35
ATOM     35  NE  ARG     5       1.548 -17.397   8.490  1.00  0.00    -0.083 NA
ATOM     36  CZ  ARG     5       2.742 -17.879   8.113  1.00  0.00     0.782 C 
ATOM     37  NH2 ARG     5       3.507 -18.581   8.964  1.00  0.00     0.063 N 
ATOM     38  NH1 ARG     5       3.267 -17.577   6.934  1.00  0.00     0.063 N 
ENDBRANCH  34  35
ENDBRANCH  33  34
ENDBRANCH  32  33
ENDBRANCH   1  32
BRANCH   1  39
ATOM     39  C   ARG     5       0.026 -20.496   7.187  1.00  0.00     0.256 C 
ATOM     40  O   ARG     5       0.439 -20.513   8.350  1.00  0.00    -0.270 OA
ATOM     41  N   PRO     6       0.373 -21.415   6.281  1.00  0.00    -0.312 N 
ATOM     42  CA  PRO     6       1.390 -22.466   6.510  1.00  0.00     0.165 C 
ATOM     43  CD  PRO     6      -0.301 -21.637   4.983  1.00  0.00     0.105 C 
ATOM     44  CB  PRO     6       1.507 -23.196   5.171  1.00  0.00     0.034 C 
ATOM     45  CG  PRO     6       0.111 -23.054   4.582  1.00  0.00     0.027 C 
BRANCH  42  46
ATOM     46  C   PRO     6       2.741 -21.858   6.923  1.00  0.00     0.272 C 
ATOM     47  N   SER     7       3.261 -22.170   8.102  1.00  0.00    -0.226 NA
ATOM     48  O   PRO     6       3.280 -21.007   6.209  1.00  0.00    -0.269 OA
BRANCH  47  49
ATOM     49  CA  SER     7       2.670 -23.067   9.124  1.00  0.00     0.219 C 
BRANCH  49  50
ATOM     50  C   SER     7       3.092 -22.673  10.550  1.00  0.00     0.277 C 
ATOM     51  O   SER     7       2.498 -23.157  11.508  1.00  0.00    -0.268 OA
ATOM     52  N   GLY     8       4.236 -22.010  10.651  1.00  0.00    -0.226 NA
BRANCH  52  53
ATOM     53  CA  GLY     8       4.672 -21.380  11.925  1.00  0.00     0.218 C 
BRANCH  53  54
ATOM     54  C   GLY     8       5.499 -20.084  11.849  1.00  0.00     0.277 C 
ATOM     55  N   GLY     9       6.753 -20.184  11.386  1.00  0.00    -0.226 NA
ATOM     56  O   GLY     8       4.996 -19.017  12.162  1.00  0.00    -0.268 OA
BRANCH  55  57
ATOM     57  CA  GLY     9       7.673 -19.032  11.296  1.00  0.00     0.218 C 
BRANCH  57  58
ATOM     58  C   GLY     9       8.733 -19.240  10.188  1.00  0.00     0.277 C 
ATOM     59  O   GLY     9       9.616 -20.073  10.351  1.00  0.00    -0.268 OA
ATOM     60  N   CYS    10       8.816 -18.433   9.140  1.00  0.00    -0.228 NA
BRANCH  60  61
ATOM     61  CA  CYS    10       8.001 -17.228   8.849  1.00  0.00     0.198 C 
BRANCH  61  62
ATOM     62  CB  CYS    10       8.852 -15.957   8.749  1.00  0.00     0.103 C 
ATOM     63  SG  CYS    10      10.054 -15.624  10.082  1.00  0.00    -0.080 SA
ENDBRANCH  61  62
BRANCH  61  64
ATOM     64  C   CYS    10       7.248 -17.290   7.519  1.00  0.00     0.275 C 
ATOM     65  O   CYS    10       6.524 -16.350   7.194  1.00  0.00    -0.268 OA
ATOM     66  N   GLY    11       7.696 -18.221   6.693  1.00  0.00    -0.225 NA
BRANCH  66  67
ATOM     67  CA  GLY    11       6.797 -18.926   5.769  1.00  0.00     0.226 C 
BRANCH  67  68
ATOM     68  C   GLY    11       7.467 -18.795   4.392  1.00  0.00     0.211 C 
ATOM     69  O2  GLY    11       6.894 -18.034   3.584  1.00  0.00    -0.646 OA
ATOM     70  O1  GLY    11       8.670 -19.137   4.328  1.00  0.00    -0.646 OA
ENDBRANCH  67  68
ENDBRANCH  66  67
ENDBRANCH  61  64
ENDBRANCH  60  61
ENDBRANCH  57  58
ENDBRANCH  55  57
ENDBRANCH  53  54
ENDBRANCH  52  53
ENDBRANCH  49  50
BRANCH  49  71
ATOM     71  CB  SER     7       3.090 -24.523   8.910  1.00  0.00     0.216 C 
ATOM     72  OG  SER     7       4.462 -24.580   8.519  1.00  0.00    -0.218 OA
ENDBRANCH  49  71
ENDBRANCH  47  49
ENDBRANCH  42  46
ENDBRANCH   1  39
TORSDOF 33
ENDMDL
MODEL 7
REMARK VINA RESULT:      -5.9      4.759      8.554
REMARK WARNING: 32 MAX_TORS EXCEEDED!!!
REMARK  33 active torsions:
REMARK  status: ('A' for Active; 'I' for Inactive)
REMARK    1  A    between atoms: CA_2  and  C_8 
REMARK    2  A    between atoms: CA_2  and  CB_3 
REMARK    3  A    between atoms: CB_3  and  CG_4 
REMARK    4  A    between atoms: CG_4  and  CD_5 
REMARK       I    between atoms: C_8  and  N_10 
REMARK    5  A    between atoms: N_10  and  CA_11 
REMARK    6  A    between atoms: CA_11  and  C_12 
REMARK       I    between atoms: C_12  and  N_14 
REMARK    7  A    between atoms: N_14  and  CA_15 
REMARK    8  A    between atoms: CA_15  and  C_20 
REMARK    9  A    between atoms: CA_15  and  CB_16 
REMARK   10  A    between atoms: CB_16  and  CG_17 
REMARK       I    between atoms: C_20  and  N_22 
REMARK   11  A    between atoms: N_22  and  CA_23 
REMARK   12  A    between atoms: CA_23  and  CB_24 
REMARK   13  A    between atoms: CA_23  and  C_28 
REMARK   14  A    between atoms: CB_24  and  CG_25 
REMARK       I    between atoms: C_28  and  N_30 
REMARK   15  A    between atoms: N_30  and  CA_31 
REMARK   16  A    between atoms: CA_31  and  CB_32 
REMARK   17  A    between atoms: CA_31  and  C_39 
REMARK   18  A    between atoms: CB_32  and  CG_33 
REMARK   19  A    between atoms: CG_33  and  CD_34 
REMARK   20  A    between atoms: CD_34  and  NE_35 
REMARK       I    between atoms: C_39  and  N_41 
REMARK   21  A    between atoms: CA_42  and  C_46 
REMARK       I    between atoms: C_46  and  N_48 
REMARK   22  A    between atoms: N_48  and  CA_49 
REMARK   23  A    between atoms: CA_49  and  C_52 
REMARK   24  A    between atoms: CA_49  and  CB_50 
REMARK       I    between atoms: C_52  and  N_54 
REMARK   25  A    between atoms: N_54  and  CA_55 
REMARK   26  A    between atoms: CA_55  and  C_56 
REMARK       I    between atoms: C_56  and  N_58 
REMARK   27  A    between atoms: N_58  and  CA_59 
REMARK   28  A    between atoms: CA_59  and  C_60 
REMARK       I    between atoms: C_60  and  N_62 
REMARK   29  A    between atoms: N_62  and  CA_63 
REMARK   30  A    between atoms: CA_63  and  CB_64 
REMARK   31  A    between atoms: CA_63  and  C_66 
REMARK       I    between atoms: C_66  and  N_68 
REMARK   32  A    between atoms: N_68  and  CA_69 
REMARK   33  A    between atoms: CA_69  and  C_70 
ROOT
ATOM      1  CA  ARG     5      -1.444 -17.827   7.960  1.00  0.00     0.185 C 
ENDROOT
BRANCH   1   2
ATOM      2  N   ARG     5      -2.315 -18.701   7.153  1.00  0.00    -0.229 NA
ATOM      3  C   ASN     4      -2.856 -19.840   7.559  1.00  0.00     0.275 C 
ATOM      4  O   ASN     4      -2.506 -20.448   8.566  1.00  0.00    -0.268 OA
BRANCH   3   5
ATOM      5  CA  ASN     4      -3.729 -20.505   6.475  1.00  0.00     0.196 C 
BRANCH   5   6
ATOM      6  N   ASN     4      -2.962 -21.538   5.748  1.00  0.00    -0.228 NA
ATOM      7  C   LEU     3      -2.959 -21.646   4.422  1.00  0.00     0.274 C 
ATOM      8  O   LEU     3      -3.578 -20.906   3.651  1.00  0.00    -0.268 OA
BRANCH   7   9
ATOM      9  CA  LEU     3      -2.057 -22.748   3.867  1.00  0.00     0.186 C 
BRANCH   9  10
ATOM     10  N   LEU     3      -1.189 -23.268   4.946  1.00  0.00    -0.229 NA
ATOM     11  C   GLY     2       0.093 -22.915   5.080  1.00  0.00     0.277 C 
ATOM     12  O   GLY     2       0.613 -22.023   4.426  1.00  0.00    -0.268 OA
BRANCH  11  13
ATOM     13  CA  GLY     2       0.861 -23.583   6.239  1.00  0.00     0.218 C 
BRANCH  13  14
ATOM     14  N   GLY     2       2.100 -22.929   6.725  1.00  0.00    -0.226 NA
ATOM     15  C   GLU     1       2.071 -21.896   7.575  1.00  0.00     0.289 C 
ATOM     16  O   GLU     1       1.032 -21.555   8.117  1.00  0.00    -0.268 OA
BRANCH  15  17
ATOM     17  CA  GLU     1       3.404 -21.186   7.933  1.00  0.00     0.381 C 
ATOM     18  N   GLU     1       4.021 -21.679   9.176  1.00  0.00     0.626 N 
BRANCH  17  19
ATOM     19  CB  GLU     1       4.368 -21.321   6.737  1.00  0.00     0.060 C 
BRANCH  19  20
ATOM     20  CG  GLU     1       5.618 -22.204   6.872  1.00  0.00     0.100 C 
BRANCH  20  21
ATOM     21  CD  GLU     1       6.917 -21.389   6.960  1.00  0.00     0.185 C 
ATOM     22  OE1 GLU     1       7.037 -20.387   6.232  1.00  0.00    -0.647 OA
ATOM     23  OE2 GLU     1       7.809 -21.780   7.732  1.00  0.00    -0.647 OA
ENDBRANCH  20  21
ENDBRANCH  19  20
ENDBRANCH  17  19
ENDBRANCH  15  17
ENDBRANCH  13  14
ENDBRANCH  11  13
ENDBRANCH   9  10
BRANCH   9  24
ATOM     24  CB  LEU     3      -2.939 -23.867   3.300  1.00  0.00     0.034 C 
BRANCH  24  25
ATOM     25  CG  LEU     3      -2.723 -24.129   1.798  1.00  0.00     0.002 C 
ATOM     26  CD1 LEU     3      -3.518 -23.111   0.984  1.00  0.00     0.000 C 
ATOM     27  CD2 LEU     3      -1.237 -24.050   1.430  1.00  0.00     0.000 C 
ENDBRANCH  24  25
ENDBRANCH   9  24
ENDBRANCH   7   9
ENDBRANCH   5   6
BRANCH   5  28
ATOM     28  CB  ASN     4      -5.006 -21.116   7.077  1.00  0.00     0.126 C 
BRANCH  28  29
ATOM     29  CG  ASN     4      -6.304 -20.445   6.586  1.00  0.00     0.276 C 
ATOM     30  ND2 ASN     4      -6.610 -20.624   5.329  1.00  0.00    -0.107 N 
ATOM     31  OD1 ASN     4      -7.065 -19.830   7.309  1.00  0.00    -0.269 OA
ENDBRANCH  28  29
ENDBRANCH   5  28
ENDBRANCH   3   5
ENDBRANCH   1   2
BRANCH   1  32
ATOM     32  CB  ARG     5      -0.091 -17.630   7.267  1.00  0.00     0.036 C 
BRANCH  32  33
ATOM     33  CG  ARG     5       0.928 -16.858   8.107  1.00  0.00     0.029 C 
BRANCH  33  34
ATOM     34  CD  ARG     5       2.245 -17.626   8.139  1.00  0.00     0.145 C 
BRANCH  34  35
ATOM     35  NE  ARG     5       3.066 -17.371   6.930  1.00  0.00    -0.083 NA
ATOM     36  CZ  ARG     5       4.387 -17.583   6.844  1.00  0.00     0.782 C 
ATOM     37  NH2 ARG     5       5.017 -17.565   5.658  1.00  0.00     0.063 N 
ATOM     38  NH1 ARG     5       5.099 -17.941   7.903  1.00  0.00     0.063 N 
ENDBRANCH  34  35
ENDBRANCH  33  34
ENDBRANCH  32  33
ENDBRANCH   1  32
BRANCH   1  39
ATOM     39  C   ARG     5      -2.126 -16.461   8.158  1.00  0.00     0.256 C 
ATOM     40  O   ARG     5      -2.592 -15.862   7.184  1.00  0.00    -0.270 OA
ATOM     41  N   PRO     6      -2.273 -16.028   9.414  1.00  0.00    -0.312 N 
ATOM     42  CA  PRO     6      -2.874 -14.726   9.780  1.00  0.00     0.165 C 
ATOM     43  CD  PRO     6      -2.015 -16.826  10.632  1.00  0.00     0.105 C 
ATOM     44  CB  PRO     6      -2.728 -14.640  11.300  1.00  0.00     0.034 C 
ATOM     45  CG  PRO     6      -2.791 -16.098  11.731  1.00  0.00     0.027 C 
BRANCH  42  46
ATOM     46  C   PRO     6      -2.145 -13.559   9.092  1.00  0.00     0.272 C 
ATOM     47  N   SER     7      -2.853 -12.561   8.579  1.00  0.00    -0.226 NA
ATOM     48  O   PRO     6      -0.923 -13.605   8.927  1.00  0.00    -0.269 OA
BRANCH  47  49
ATOM     49  CA  SER     7      -4.329 -12.429   8.578  1.00  0.00     0.219 C 
BRANCH  49  50
ATOM     50  C   SER     7      -4.900 -12.352   7.151  1.00  0.00     0.277 C 
ATOM     51  O   SER     7      -4.671 -13.263   6.363  1.00  0.00    -0.268 OA
ATOM     52  N   GLY     8      -5.805 -11.406   6.942  1.00  0.00    -0.226 NA
BRANCH  52  53
ATOM     53  CA  GLY     8      -6.290 -11.068   5.578  1.00  0.00     0.218 C 
BRANCH  53  54
ATOM     54  C   GLY     8      -7.610 -11.698   5.100  1.00  0.00     0.277 C 
ATOM     55  N   GLY     9      -7.541 -12.916   4.544  1.00  0.00    -0.226 NA
ATOM     56  O   GLY     8      -8.667 -11.112   5.271  1.00  0.00    -0.268 OA
BRANCH  55  57
ATOM     57  CA  GLY     9      -8.720 -13.625   4.006  1.00  0.00     0.218 C 
BRANCH  57  58
ATOM     58  C   GLY     9      -8.473 -15.150   3.917  1.00  0.00     0.277 C 
ATOM     59  O   GLY     9      -7.748 -15.590   3.034  1.00  0.00    -0.268 OA
ATOM     60  N   CYS    10      -9.150 -16.012   4.662  1.00  0.00    -0.228 NA
BRANCH  60  61
ATOM     61  CA  CYS    10     -10.234 -15.724   5.633  1.00  0.00     0.198 C 
BRANCH  61  62
ATOM     62  CB  CYS    10     -11.534 -16.463   5.295  1.00  0.00     0.103 C 
ATOM     63  SG  CYS    10     -12.120 -16.416   3.567  1.00  0.00    -0.080 SA
ENDBRANCH  61  62
BRANCH  61  64
ATOM     64  C   CYS    10      -9.916 -16.149   7.068  1.00  0.00     0.275 C 
ATOM     65  O   CYS    10     -10.733 -16.826   7.689  1.00  0.00    -0.268 OA
ATOM     66  N   GLY    11      -8.643 -16.007   7.398  1.00  0.00    -0.225 NA
BRANCH  66  67
ATOM     67  CA  GLY    11      -8.238 -15.664   8.769  1.00  0.00     0.226 C 
BRANCH  67  68
ATOM     68  C   GLY    11      -8.775 -14.241   8.992  1.00  0.00     0.211 C 
ATOM     69  O2  GLY    11      -9.535 -14.101   9.975  1.00  0.00    -0.646 OA
ATOM     70  O1  GLY    11      -8.139 -13.316   8.438  1.00  0.00    -0.646 OA
ENDBRANCH  67  68
ENDBRANCH  66  67
ENDBRANCH  61  64
ENDBRANCH  60  61
ENDBRANCH  57  58
ENDBRANCH  55  57
ENDBRANCH  53  54
ENDBRANCH  52  53
ENDBRANCH  49  50
BRANCH  49  71
ATOM     71  CB  SER     7      -4.785 -11.171   9.320  1.00  0.00     0.216 C 
ATOM     72  OG  SER     7      -5.818 -11.502  10.250  1.00  0.00    -0.218 OA
ENDBRANCH  49  71
ENDBRANCH  47  49
ENDBRANCH  42  46
ENDBRANCH   1  39
TORSDOF 33
ENDMDL
MODEL 8
REMARK VINA RESULT:      -5.9      4.630     10.176
REMARK WARNING: 32 MAX_TORS EXCEEDED!!!
REMARK  33 active torsions:
REMARK  status: ('A' for Active; 'I' for Inactive)
REMARK    1  A    between atoms: CA_2  and  C_8 
REMARK    2  A    between atoms: CA_2  and  CB_3 
REMARK    3  A    between atoms: CB_3  and  CG_4 
REMARK    4  A    between atoms: CG_4  and  CD_5 
REMARK       I    between atoms: C_8  and  N_10 
REMARK    5  A    between atoms: N_10  and  CA_11 
REMARK    6  A    between atoms: CA_11  and  C_12 
REMARK       I    between atoms: C_12  and  N_14 
REMARK    7  A    between atoms: N_14  and  CA_15 
REMARK    8  A    between atoms: CA_15  and  C_20 
REMARK    9  A    between atoms: CA_15  and  CB_16 
REMARK   10  A    between atoms: CB_16  and  CG_17 
REMARK       I    between atoms: C_20  and  N_22 
REMARK   11  A    between atoms: N_22  and  CA_23 
REMARK   12  A    between atoms: CA_23  and  CB_24 
REMARK   13  A    between atoms: CA_23  and  C_28 
REMARK   14  A    between atoms: CB_24  and  CG_25 
REMARK       I    between atoms: C_28  and  N_30 
REMARK   15  A    between atoms: N_30  and  CA_31 
REMARK   16  A    between atoms: CA_31  and  CB_32 
REMARK   17  A    between atoms: CA_31  and  C_39 
REMARK   18  A    between atoms: CB_32  and  CG_33 
REMARK   19  A    between atoms: CG_33  and  CD_34 
REMARK   20  A    between atoms: CD_34  and  NE_35 
REMARK       I    between atoms: C_39  and  N_41 
REMARK   21  A    between atoms: CA_42  and  C_46 
REMARK       I    between atoms: C_46  and  N_48 
REMARK   22  A    between atoms: N_48  and  CA_49 
REMARK   23  A    between atoms: CA_49  and  C_52 
REMARK   24  A    between atoms: CA_49  and  CB_50 
REMARK       I    between atoms: C_52  and  N_54 
REMARK   25  A    between atoms: N_54  and  CA_55 
REMARK   26  A    between atoms: CA_55  and  C_56 
REMARK       I    between atoms: C_56  and  N_58 
REMARK   27  A    between atoms: N_58  and  CA_59 
REMARK   28  A    between atoms: CA_59  and  C_60 
REMARK       I    between atoms: C_60  and  N_62 
REMARK   29  A    between atoms: N_62  and  CA_63 
REMARK   30  A    between atoms: CA_63  and  CB_64 
REMARK   31  A    between atoms: CA_63  and  C_66 
REMARK       I    between atoms: C_66  and  N_68 
REMARK   32  A    between atoms: N_68  and  CA_69 
REMARK   33  A    between atoms: CA_69  and  C_70 
ROOT
ATOM      1  CA  ARG     5      -0.645 -21.859   6.498  1.00  0.00     0.185 C 
ENDROOT
BRANCH   1   2
ATOM      2  N   ARG     5      -0.244 -20.470   6.790  1.00  0.00    -0.229 NA
ATOM      3  C   ASN     4       0.987 -19.990   6.714  1.00  0.00     0.275 C 
ATOM      4  O   ASN     4       1.995 -20.685   6.638  1.00  0.00    -0.268 OA
BRANCH   3   5
ATOM      5  CA  ASN     4       1.065 -18.491   7.071  1.00  0.00     0.196 C 
BRANCH   5   6
ATOM      6  N   ASN     4      -0.289 -17.928   7.260  1.00  0.00    -0.228 NA
ATOM      7  C   LEU     3      -0.551 -16.625   7.200  1.00  0.00     0.274 C 
ATOM      8  O   LEU     3       0.285 -15.745   6.977  1.00  0.00    -0.268 OA
BRANCH   7   9
ATOM      9  CA  LEU     3      -2.025 -16.256   7.369  1.00  0.00     0.186 C 
BRANCH   9  10
ATOM     10  N   LEU     3      -2.602 -17.022   8.496  1.00  0.00    -0.229 NA
ATOM     11  C   GLY     2      -3.623 -17.871   8.349  1.00  0.00     0.277 C 
ATOM     12  O   GLY     2      -4.064 -18.205   7.259  1.00  0.00    -0.268 OA
BRANCH  11  13
ATOM     13  CA  GLY     2      -4.123 -18.557   9.637  1.00  0.00     0.218 C 
BRANCH  13  14
ATOM     14  N   GLY     2      -3.886 -20.013   9.790  1.00  0.00    -0.226 NA
ATOM     15  C   GLU     1      -3.063 -20.503  10.725  1.00  0.00     0.289 C 
ATOM     16  O   GLU     1      -2.602 -19.786  11.597  1.00  0.00    -0.268 OA
BRANCH  15  17
ATOM     17  CA  GLU     1      -2.770 -22.027  10.736  1.00  0.00     0.381 C 
ATOM     18  N   GLU     1      -1.978 -22.469  11.897  1.00  0.00     0.626 N 
BRANCH  17  19
ATOM     19  CB  GLU     1      -4.110 -22.785  10.651  1.00  0.00     0.060 C 
BRANCH  19  20
ATOM     20  CG  GLU     1      -4.257 -23.948   9.658  1.00  0.00     0.100 C 
BRANCH  20  21
ATOM     21  CD  GLU     1      -5.703 -24.143   9.178  1.00  0.00     0.185 C 
ATOM     22  OE1 GLU     1      -6.507 -23.205   9.327  1.00  0.00    -0.647 OA
ATOM     23  OE2 GLU     1      -6.022 -25.240   8.688  1.00  0.00    -0.647 OA
ENDBRANCH  20  21
ENDBRANCH  19  20
ENDBRANCH  17  19
ENDBRANCH  15  17
ENDBRANCH  13  14
ENDBRANCH  11  13
ENDBRANCH   9  10
BRANCH   9  24
ATOM     24  CB  LEU     3      -2.128 -14.749   7.634  1.00  0.00     0.034 C 
BRANCH  24  25
ATOM     25  CG  LEU     3      -1.795 -14.349   9.083  1.00  0.00     0.002 C 
ATOM     26  CD1 LEU     3      -0.764 -13.222   9.075  1.00  0.00     0.000 C 
ATOM     27  CD2 LEU     3      -3.052 -13.904   9.838  1.00  0.00     0.000 C 
ENDBRANCH  24  25
ENDBRANCH   9  24
ENDBRANCH   7   9
ENDBRANCH   5   6
BRANCH   5  28
ATOM     28  CB  ASN     4       1.918 -18.255   8.329  1.00  0.00     0.126 C 
BRANCH  28  29
ATOM     29  CG  ASN     4       3.398 -17.951   8.026  1.00  0.00     0.276 C 
ATOM     30  ND2 ASN     4       3.629 -17.028   7.131  1.00  0.00    -0.107 N 
ATOM     31  OD1 ASN     4       4.331 -18.469   8.610  1.00  0.00    -0.269 OA
ENDBRANCH  28  29
ENDBRANCH   5  28
ENDBRANCH   3   5
ENDBRANCH   1   2
BRANCH   1  32
ATOM     32  CB  ARG     5      -0.624 -22.704   7.777  1.00  0.00     0.036 C 
BRANCH  32  33
ATOM     33  CG  ARG     5      -0.377 -24.193   7.530  1.00  0.00     0.029 C 
BRANCH  33  34
ATOM     34  CD  ARG     5       1.123 -24.445   7.409  1.00  0.00     0.145 C 
BRANCH  34  35
ATOM     35  NE  ARG     5       1.450 -25.280   6.228  1.00  0.00    -0.083 NA
ATOM     36  CZ  ARG     5       2.130 -24.852   5.153  1.00  0.00     0.782 C 
ATOM     37  NH2 ARG     5       2.601 -25.717   4.240  1.00  0.00     0.063 N 
ATOM     38  NH1 ARG     5       2.471 -23.579   5.014  1.00  0.00     0.063 N 
ENDBRANCH  34  35
ENDBRANCH  33  34
ENDBRANCH  32  33
ENDBRANCH   1  32
BRANCH   1  39
ATOM     39  C   ARG     5      -2.062 -21.870   5.896  1.00  0.00     0.256 C 
ATOM     40  O   ARG     5      -2.939 -21.146   6.377  1.00  0.00    -0.270 OA
ATOM     41  N   PRO     6      -2.252 -22.603   4.794  1.00  0.00    -0.312 N 
ATOM     42  CA  PRO     6      -3.555 -22.752   4.109  1.00  0.00     0.165 C 
ATOM     43  CD  PRO     6      -1.184 -23.245   3.997  1.00  0.00     0.105 C 
ATOM     44  CB  PRO     6      -3.293 -23.751   2.981  1.00  0.00     0.034 C 
ATOM     45  CG  PRO     6      -1.832 -23.499   2.635  1.00  0.00     0.027 C 
BRANCH  42  46
ATOM     46  C   PRO     6      -4.637 -23.278   5.067  1.00  0.00     0.272 C 
ATOM     47  N   SER     7      -5.849 -22.743   5.037  1.00  0.00    -0.226 NA
ATOM     48  O   PRO     6      -4.346 -24.115   5.927  1.00  0.00    -0.269 OA
BRANCH  47  49
ATOM     49  CA  SER     7      -6.312 -21.642   4.158  1.00  0.00     0.219 C 
BRANCH  49  50
ATOM     50  C   SER     7      -6.630 -20.364   4.954  1.00  0.00     0.277 C 
ATOM     51  O   SER     7      -5.781 -19.484   5.040  1.00  0.00    -0.268 OA
ATOM     52  N   GLY     8      -7.899 -20.201   5.301  1.00  0.00    -0.226 NA
BRANCH  52  53
ATOM     53  CA  GLY     8      -8.327 -19.135   6.246  1.00  0.00     0.218 C 
BRANCH  53  54
ATOM     54  C   GLY     8      -8.894 -17.830   5.659  1.00  0.00     0.277 C 
ATOM     55  N   GLY     9      -8.276 -16.688   5.995  1.00  0.00    -0.226 NA
ATOM     56  O   GLY     8      -9.840 -17.864   4.889  1.00  0.00    -0.268 OA
BRANCH  55  57
ATOM     57  CA  GLY     9      -8.734 -15.360   5.539  1.00  0.00     0.218 C 
BRANCH  57  58
ATOM     58  C   GLY     9      -7.827 -14.804   4.415  1.00  0.00     0.277 C 
ATOM     59  O   GLY     9      -7.804 -15.369   3.329  1.00  0.00    -0.268 OA
ATOM     60  N   CYS    10      -6.949 -13.837   4.639  1.00  0.00    -0.228 NA
BRANCH  60  61
ATOM     61  CA  CYS    10      -6.644 -13.162   5.924  1.00  0.00     0.198 C 
BRANCH  61  62
ATOM     62  CB  CYS    10      -5.815 -14.044   6.865  1.00  0.00     0.103 C 
ATOM     63  SG  CYS    10      -6.515 -14.443   8.503  1.00  0.00    -0.080 SA
ENDBRANCH  61  62
BRANCH  61  64
ATOM     64  C   CYS    10      -5.820 -11.881   5.778  1.00  0.00     0.275 C 
ATOM     65  O   CYS    10      -5.453 -11.528   4.658  1.00  0.00    -0.268 OA
ATOM     66  N   GLY    11      -5.846 -11.103   6.847  1.00  0.00    -0.225 NA
BRANCH  66  67
ATOM     67  CA  GLY    11      -4.689 -10.281   7.229  1.00  0.00     0.226 C 
BRANCH  67  68
ATOM     68  C   GLY    11      -5.119  -8.836   6.936  1.00  0.00     0.211 C 
ATOM     69  O2  GLY    11      -6.204  -8.709   6.328  1.00  0.00    -0.646 OA
ATOM     70  O1  GLY    11      -4.575  -7.946   7.628  1.00  0.00    -0.646 OA
ENDBRANCH  67  68
ENDBRANCH  66  67
ENDBRANCH  61  64
ENDBRANCH  60  61
ENDBRANCH  57  58
ENDBRANCH  55  57
ENDBRANCH  53  54
ENDBRANCH  52  53
ENDBRANCH  49  50
BRANCH  49  71
ATOM     71  CB  SER     7      -7.578 -22.026   3.389  1.00  0.00     0.216 C 
ATOM     72  OG  SER     7      -7.316 -22.016   1.985  1.00  0.00    -0.218 OA
ENDBRANCH  49  71
ENDBRANCH  47  49
ENDBRANCH  42  46
ENDBRANCH   1  39
TORSDOF 33
ENDMDL
MODEL 9
REMARK VINA RESULT:      -5.9      5.673     14.960
REMARK WARNING: 32 MAX_TORS EXCEEDED!!!
REMARK  33 active torsions:
REMARK  status: ('A' for Active; 'I' for Inactive)
REMARK    1  A    between atoms: CA_2  and  C_8 
REMARK    2  A    between atoms: CA_2  and  CB_3 
REMARK    3  A    between atoms: CB_3  and  CG_4 
REMARK    4  A    between atoms: CG_4  and  CD_5 
REMARK       I    between atoms: C_8  and  N_10 
REMARK    5  A    between atoms: N_10  and  CA_11 
REMARK    6  A    between atoms: CA_11  and  C_12 
REMARK       I    between atoms: C_12  and  N_14 
REMARK    7  A    between atoms: N_14  and  CA_15 
REMARK    8  A    between atoms: CA_15  and  C_20 
REMARK    9  A    between atoms: CA_15  and  CB_16 
REMARK   10  A    between atoms: CB_16  and  CG_17 
REMARK       I    between atoms: C_20  and  N_22 
REMARK   11  A    between atoms: N_22  and  CA_23 
REMARK   12  A    between atoms: CA_23  and  CB_24 
REMARK   13  A    between atoms: CA_23  and  C_28 
REMARK   14  A    between atoms: CB_24  and  CG_25 
REMARK       I    between atoms: C_28  and  N_30 
REMARK   15  A    between atoms: N_30  and  CA_31 
REMARK   16  A    between atoms: CA_31  and  CB_32 
REMARK   17  A    between atoms: CA_31  and  C_39 
REMARK   18  A    between atoms: CB_32  and  CG_33 
REMARK   19  A    between atoms: CG_33  and  CD_34 
REMARK   20  A    between atoms: CD_34  and  NE_35 
REMARK       I    between atoms: C_39  and  N_41 
REMARK   21  A    between atoms: CA_42  and  C_46 
REMARK       I    between atoms: C_46  and  N_48 
REMARK   22  A    between atoms: N_48  and  CA_49 
REMARK   23  A    between atoms: CA_49  and  C_52 
REMARK   24  A    between atoms: CA_49  and  CB_50 
REMARK       I    between atoms: C_52  and  N_54 
REMARK   25  A    between atoms: N_54  and  CA_55 
REMARK   26  A    between atoms: CA_55  and  C_56 
REMARK       I    between atoms: C_56  and  N_58 
REMARK   27  A    between atoms: N_58  and  CA_59 
REMARK   28  A    between atoms: CA_59  and  C_60 
REMARK       I    between atoms: C_60  and  N_62 
REMARK   29  A    between atoms: N_62  and  CA_63 
REMARK   30  A    between atoms: CA_63  and  CB_64 
REMARK   31  A    between atoms: CA_63  and  C_66 
REMARK       I    between atoms: C_66  and  N_68 
REMARK   32  A    between atoms: N_68  and  CA_69 
REMARK   33  A    between atoms: CA_69  and  C_70 
ROOT
ATOM      1  CA  ARG     5      -0.273 -18.065   7.645  1.00  0.00     0.185 C 
ENDROOT
BRANCH   1   2
ATOM      2  N   ARG     5      -0.893 -16.881   8.268  1.00  0.00    -0.229 NA
ATOM      3  C   ASN     4      -1.454 -15.872   7.619  1.00  0.00     0.275 C 
ATOM      4  O   ASN     4      -1.312 -15.660   6.419  1.00  0.00    -0.268 OA
BRANCH   3   5
ATOM      5  CA  ASN     4      -2.024 -14.797   8.568  1.00  0.00     0.196 C 
BRANCH   5   6
ATOM      6  N   ASN     4      -2.988 -13.932   7.857  1.00  0.00    -0.228 NA
ATOM      7  C   LEU     3      -3.295 -12.700   8.257  1.00  0.00     0.274 C 
ATOM      8  O   LEU     3      -2.815 -12.138   9.246  1.00  0.00    -0.268 OA
BRANCH   7   9
ATOM      9  CA  LEU     3      -4.274 -11.954   7.352  1.00  0.00     0.186 C 
BRANCH   9  10
ATOM     10  N   LEU     3      -5.461 -12.801   7.100  1.00  0.00    -0.229 NA
ATOM     11  C   GLY     2      -6.030 -12.912   5.896  1.00  0.00     0.277 C 
ATOM     12  O   GLY     2      -5.535 -12.455   4.877  1.00  0.00    -0.268 OA
BRANCH  11  13
ATOM     13  CA  GLY     2      -7.284 -13.809   5.821  1.00  0.00     0.218 C 
BRANCH  13  14
ATOM     14  N   GLY     2      -7.510 -14.787   6.913  1.00  0.00    -0.226 NA
ATOM     15  C   GLU     1      -8.704 -14.936   7.496  1.00  0.00     0.289 C 
ATOM     16  O   GLU     1      -9.699 -14.393   7.044  1.00  0.00    -0.268 OA
BRANCH  15  17
ATOM     17  CA  GLU     1      -8.826 -15.888   8.716  1.00  0.00     0.381 C 
ATOM     18  N   GLU     1      -9.789 -15.428   9.732  1.00  0.00     0.626 N 
BRANCH  17  19
ATOM     19  CB  GLU     1      -9.181 -17.299   8.205  1.00  0.00     0.060 C 
BRANCH  19  20
ATOM     20  CG  GLU     1      -8.074 -18.188   7.617  1.00  0.00     0.100 C 
BRANCH  20  21
ATOM     21  CD  GLU     1      -8.280 -18.486   6.124  1.00  0.00     0.185 C 
ATOM     22  OE1 GLU     1      -7.837 -19.556   5.669  1.00  0.00    -0.647 OA
ATOM     23  OE2 GLU     1      -8.853 -17.633   5.424  1.00  0.00    -0.647 OA
ENDBRANCH  20  21
ENDBRANCH  19  20
ENDBRANCH  17  19
ENDBRANCH  15  17
ENDBRANCH  13  14
ENDBRANCH  11  13
ENDBRANCH   9  10
BRANCH   9  24
ATOM     24  CB  LEU     3      -4.683 -10.646   8.041  1.00  0.00     0.034 C 
BRANCH  24  25
ATOM     25  CG  LEU     3      -4.309  -9.381   7.247  1.00  0.00     0.002 C 
ATOM     26  CD1 LEU     3      -5.475  -8.984   6.343  1.00  0.00     0.000 C 
ATOM     27  CD2 LEU     3      -3.954  -8.223   8.185  1.00  0.00     0.000 C 
ENDBRANCH  24  25
ENDBRANCH   9  24
ENDBRANCH   7   9
ENDBRANCH   5   6
BRANCH   5  28
ATOM     28  CB  ASN     4      -2.687 -15.430   9.803  1.00  0.00     0.126 C 
BRANCH  28  29
ATOM     29  CG  ASN     4      -1.892 -15.225  11.107  1.00  0.00     0.276 C 
ATOM     30  ND2 ASN     4      -0.892 -14.386  11.050  1.00  0.00    -0.107 N 
ATOM     31  OD1 ASN     4      -2.184 -15.743  12.168  1.00  0.00    -0.269 OA
ENDBRANCH  28  29
ENDBRANCH   5  28
ENDBRANCH   3   5
ENDBRANCH   1   2
BRANCH   1  32
ATOM     32  CB  ARG     5       0.656 -18.770   8.639  1.00  0.00     0.036 C 
BRANCH  32  33
ATOM     33  CG  ARG     5       2.049 -18.146   8.734  1.00  0.00     0.029 C 
BRANCH  33  34
ATOM     34  CD  ARG     5       2.895 -18.610   7.553  1.00  0.00     0.145 C 
BRANCH  34  35
ATOM     35  NE  ARG     5       4.280 -18.084   7.622  1.00  0.00    -0.083 NA
ATOM     36  CZ  ARG     5       4.714 -16.984   6.987  1.00  0.00     0.782 C 
ATOM     37  NH2 ARG     5       5.901 -16.432   7.288  1.00  0.00     0.063 N 
ATOM     38  NH1 ARG     5       3.940 -16.330   6.133  1.00  0.00     0.063 N 
ENDBRANCH  34  35
ENDBRANCH  33  34
ENDBRANCH  32  33
ENDBRANCH   1  32
BRANCH   1  39
ATOM     39  C   ARG     5      -1.372 -19.041   7.184  1.00  0.00     0.256 C 
ATOM     40  O   ARG     5      -1.401 -19.421   6.010  1.00  0.00    -0.270 OA
ATOM     41  N   PRO     6      -2.197 -19.517   8.121  1.00  0.00    -0.312 N 
ATOM     42  CA  PRO     6      -3.326 -20.434   7.846  1.00  0.00     0.165 C 
ATOM     43  CD  PRO     6      -2.030 -19.344   9.580  1.00  0.00     0.105 C 
ATOM     44  CB  PRO     6      -4.025 -20.611   9.194  1.00  0.00     0.034 C 
ATOM     45  CG  PRO     6      -2.887 -20.453  10.192  1.00  0.00     0.027 C 
BRANCH  42  46
ATOM     46  C   PRO     6      -4.288 -19.843   6.802  1.00  0.00     0.272 C 
ATOM     47  N   SER     7      -4.562 -20.534   5.704  1.00  0.00    -0.226 NA
ATOM     48  O   PRO     6      -4.715 -18.692   6.937  1.00  0.00    -0.269 OA
BRANCH  47  49
ATOM     49  CA  SER     7      -4.023 -21.865   5.335  1.00  0.00     0.219 C 
BRANCH  49  50
ATOM     50  C   SER     7      -3.488 -21.890   3.892  1.00  0.00     0.277 C 
ATOM     51  O   SER     7      -3.208 -20.833   3.337  1.00  0.00    -0.268 OA
ATOM     52  N   GLY     8      -3.142 -23.082   3.426  1.00  0.00    -0.226 NA
BRANCH  52  53
ATOM     53  CA  GLY     8      -2.810 -23.301   1.993  1.00  0.00     0.218 C 
BRANCH  53  54
ATOM     54  C   GLY     8      -1.602 -24.193   1.656  1.00  0.00     0.277 C 
ATOM     55  N   GLY     9      -1.573 -25.417   2.203  1.00  0.00    -0.226 NA
ATOM     56  O   GLY     8      -0.743 -23.797   0.886  1.00  0.00    -0.268 OA
BRANCH  55  57
ATOM     57  CA  GLY     9      -0.458 -26.365   1.999  1.00  0.00     0.218 C 
BRANCH  57  58
ATOM     58  C   GLY     9      -0.132 -27.143   3.296  1.00  0.00     0.277 C 
ATOM     59  O   GLY     9      -0.790 -28.135   3.583  1.00  0.00    -0.268 OA
ATOM     60  N   CYS    10       0.725 -26.677   4.194  1.00  0.00    -0.228 NA
BRANCH  60  61
ATOM     61  CA  CYS    10       1.466 -25.392   4.166  1.00  0.00     0.198 C 
BRANCH  61  62
ATOM     62  CB  CYS    10       1.023 -24.437   5.281  1.00  0.00     0.103 C 
ATOM     63  SG  CYS    10       0.241 -22.861   4.796  1.00  0.00    -0.080 SA
ENDBRANCH  61  62
BRANCH  61  64
ATOM     64  C   CYS    10       2.976 -25.537   4.366  1.00  0.00     0.275 C 
ATOM     65  O   CYS    10       3.618 -26.256   3.602  1.00  0.00    -0.268 OA
ATOM     66  N   GLY    11       3.501 -24.620   5.162  1.00  0.00    -0.225 NA
BRANCH  66  67
ATOM     67  CA  GLY    11       4.648 -24.920   6.030  1.00  0.00     0.226 C 
BRANCH  67  68
ATOM     68  C   GLY    11       4.066 -25.774   7.168  1.00  0.00     0.211 C 
ATOM     69  O2  GLY    11       4.700 -26.818   7.436  1.00  0.00    -0.646 OA
ATOM     70  O1  GLY    11       3.275 -25.194   7.945  1.00  0.00    -0.646 OA
ENDBRANCH  67  68
ENDBRANCH  66  67
ENDBRANCH  61  64
ENDBRANCH  60  61
ENDBRANCH  57  58
ENDBRANCH  55  57
ENDBRANCH  53  54
ENDBRANCH  52  53
ENDBRANCH  49  50
BRANCH  49  71
ATOM     71  CB  SER     7      -5.089 -22.957   5.445  1.00  0.00     0.216 C 
ATOM     72  OG  SER     7      -4.785 -23.826   6.537  1.00  0.00    -0.218 OA
ENDBRANCH  49  71
ENDBRANCH  47  49
ENDBRANCH  42  46
ENDBRANCH   1  39
TORSDOF 33
ENDMDL
