MODEL 1
REMARK VINA RESULT:      -5.6      0.000      0.000
REMARK  28 active torsions:
REMARK  status: ('A' for Active; 'I' for Inactive)
REMARK       I    between atoms: C_1  and  N_3 
REMARK    1  A    between atoms: C_1  and  C_41 
REMARK    2  A    between atoms: N_3  and  C_5 
REMARK    3  A    between atoms: C_5  and  C_6 
REMARK    4  A    between atoms: C_5  and  C_18 
REMARK       I    between atoms: C_18  and  N_19 
REMARK    5  A    between atoms: C_20  and  C_25 
REMARK       I    between atoms: C_25  and  N_26 
REMARK    6  A    between atoms: N_26  and  C_29 
REMARK    7  A    between atoms: C_29  and  C_30 
REMARK    8  A    between atoms: C_29  and  C_38 
REMARK       I    between atoms: C_30  and  N_31 
REMARK    9  A    between atoms: N_31  and  C_34 
REMARK   10  A    between atoms: C_34  and  C_35 
REMARK   11  A    between atoms: C_38  and  O_39 
REMARK   12  A    between atoms: C_6  and  C_7 
REMARK   13  A    between atoms: C_7  and  C_8 
REMARK   14  A    between atoms: C_8  and  N_9 
REMARK       I    between atoms: N_9  and  C_10 
REMARK       I    between atoms: C_10  and  N_12 
REMARK   15  A    between atoms: C_41  and  C_42 
REMARK   16  A    between atoms: C_41  and  N_48 
REMARK       I    between atoms: N_48  and  C_50 
REMARK   17  A    between atoms: C_50  and  C_52 
REMARK   18  A    between atoms: C_52  and  N_53 
REMARK   19  A    between atoms: C_52  and  C_72 
REMARK       I    between atoms: N_53  and  C_55 
REMARK   20  A    between atoms: C_55  and  C_57 
REMARK   21  A    between atoms: C_57  and  N_58 
REMARK       I    between atoms: N_58  and  C_60 
REMARK   22  A    between atoms: C_60  and  C_62 
REMARK   23  A    between atoms: C_62  and  N_63 
REMARK   24  A    between atoms: C_62  and  C_67 
REMARK   25  A    between atoms: C_67  and  C_68 
REMARK   26  A    between atoms: C_68  and  C_69 
REMARK   27  A    between atoms: C_72  and  C_73 
REMARK   28  A    between atoms: C_42  and  C_43 
REMARK       I    between atoms: C_43  and  N_44 
ROOT
HETATM    1  C           0      12.541 -11.494  -8.954  0.00  0.00     0.241 C 
HETATM    2  O           0      11.722 -11.829  -8.091  0.00  0.00    -0.271 OA
HETATM    3  N           0      12.788 -12.266 -10.039  0.00  0.00    -0.346 N 
HETATM    4  H           0      13.492 -11.974 -10.706  0.00  0.00     0.163 HD
ENDROOT
BRANCH   3   5
HETATM    5  C           0      11.951 -13.430 -10.321  0.00  0.00     0.176 C 
BRANCH   5   6
HETATM    6  C           0      11.148 -13.251 -11.620  0.00  0.00     0.036 C 
BRANCH   6   7
HETATM    7  C           0      11.448 -11.894 -12.268  0.00  0.00     0.023 C 
BRANCH   7   8
HETATM    8  C           0      10.561 -11.564 -13.469  0.00  0.00     0.138 C 
BRANCH   8   9
HETATM    9  N           0       9.172 -11.693 -13.036  0.00  0.00    -0.227 N 
HETATM   10  C           0       8.305 -10.705 -12.833  0.00  0.00     0.665 C 
HETATM   11  N           0       8.661  -9.419 -12.957  0.00  0.00    -0.235 N 
HETATM   12  N           0       7.043 -11.039 -12.507  0.00  0.00    -0.235 N 
HETATM   13  H           0       7.964  -8.689 -12.941  0.00  0.00     0.174 HD
HETATM   14  H           0       9.582  -9.167 -13.278  0.00  0.00     0.174 HD
HETATM   15  H           0       6.422 -10.351 -12.110  0.00  0.00     0.174 HD
HETATM   16  H           0       6.886 -12.029 -12.302  0.00  0.00     0.174 HD
HETATM   17  H           0       8.790 -12.633 -12.837  0.00  0.00     0.177 HD
ENDBRANCH   8   9
ENDBRANCH   7   8
ENDBRANCH   6   7
ENDBRANCH   5   6
BRANCH   5  18
HETATM   18  C           0      12.667 -14.796 -10.237  0.00  0.00     0.243 C 
HETATM   19  N           0      12.315 -15.702  -9.285  0.00  0.00    -0.337 N 
HETATM   20  C           0      12.926 -17.042  -9.303  0.00  0.00     0.179 C 
HETATM   21  C           0      11.731 -15.420  -7.956  0.00  0.00     0.127 C 
HETATM   22  C           0      12.922 -17.501  -7.818  0.00  0.00     0.037 C 
HETATM   23  C           0      12.645 -16.218  -7.020  0.00  0.00     0.022 C 
HETATM   24  O           0      13.510 -15.048 -11.103  0.00  0.00    -0.271 OA
BRANCH  20  25
HETATM   25  C           0      12.202 -18.072 -10.187  0.00  0.00     0.241 C 
HETATM   26  N           0      11.302 -18.897  -9.593  0.00  0.00    -0.344 N 
HETATM   27  H           0      11.120 -18.811  -8.596  0.00  0.00     0.163 HD
HETATM   28  O           0      12.475 -18.122 -11.389  0.00  0.00    -0.271 OA
BRANCH  26  29
HETATM   29  C           0      10.706 -20.021 -10.301  0.00  0.00     0.200 C 
BRANCH  29  30
HETATM   30  C           0       9.331 -19.756 -10.944  0.00  0.00     0.242 C 
HETATM   31  N           0       9.300 -19.125 -12.125  0.00  0.00    -0.354 N 
HETATM   32  H           0      10.140 -18.862 -12.635  0.00  0.00     0.162 HD
HETATM   33  O           0       8.311 -20.130 -10.343  0.00  0.00    -0.271 OA
BRANCH  31  34
HETATM   34  C           0       8.076 -18.858 -12.859  0.00  0.00     0.203 C 
BRANCH  34  35
HETATM   35  C           0       8.213 -19.336 -14.333  0.00  0.00     0.307 C 
HETATM   36  O           0       7.193 -19.876 -14.841  0.00  0.00    -0.186 OA
HETATM   37  O           0       9.333 -19.127 -14.859  0.00  0.00    -0.186 OA
ENDBRANCH  34  35
ENDBRANCH  31  34
ENDBRANCH  29  30
BRANCH  29  38
HETATM   38  C           0      10.615 -21.264  -9.389  0.00  0.00     0.199 C 
BRANCH  38  39
HETATM   39  O           0      10.185 -22.421 -10.082  0.00  0.00    -0.398 OA
HETATM   40  H           0      10.879 -22.713 -10.697  0.00  0.00     0.209 HD
ENDBRANCH  38  39
ENDBRANCH  29  38
ENDBRANCH  26  29
ENDBRANCH  20  25
ENDBRANCH   5  18
ENDBRANCH   3   5
BRANCH   1  41
HETATM   41  C           0      13.293 -10.150  -8.864  0.00  0.00     0.185 C 
BRANCH  41  42
HETATM   42  C           0      12.964  -9.210 -10.039  0.00  0.00     0.137 C 
BRANCH  42  43
HETATM   43  C           0      11.571  -8.583  -9.989  0.00  0.00     0.217 C 
HETATM   44  N           0      11.392  -7.718  -8.968  0.00  0.00    -0.370 N 
HETATM   45  H           0      10.459  -7.355  -8.826  0.00  0.00     0.159 HD
HETATM   46  H           0      12.106  -7.553  -8.248  0.00  0.00     0.159 HD
HETATM   47  O           0      10.690  -8.884 -10.799  0.00  0.00    -0.274 OA
ENDBRANCH  42  43
ENDBRANCH  41  42
BRANCH  41  48
HETATM   48  N           0      14.740 -10.330  -8.845  0.00  0.00    -0.346 N 
HETATM   49  H           0      15.145 -11.014  -9.471  0.00  0.00     0.163 HD
HETATM   50  C           0      15.561  -9.707  -7.975  0.00  0.00     0.241 C 
HETATM   51  O           0      15.157  -8.940  -7.092  0.00  0.00    -0.271 OA
BRANCH  50  52
HETATM   52  C           0      17.069  -9.969  -8.143  0.00  0.00     0.177 C 
BRANCH  52  53
HETATM   53  N           0      17.599 -10.852  -7.109  0.00  0.00    -0.346 N 
HETATM   54  H           0      17.100 -11.707  -6.894  0.00  0.00     0.163 HD
HETATM   55  C           0      18.802 -10.626  -6.517  0.00  0.00     0.236 C 
HETATM   56  O           0      19.522  -9.674  -6.807  0.00  0.00    -0.272 OA
BRANCH  55  57
HETATM   57  C           0      19.251 -11.647  -5.463  0.00  0.00     0.225 C 
BRANCH  57  58
HETATM   58  N           0      18.466 -12.879  -5.449  0.00  0.00    -0.351 N 
HETATM   59  H           0      18.584 -13.511  -6.228  0.00  0.00     0.163 HD
HETATM   60  C           0      17.857 -13.267  -4.303  0.00  0.00     0.248 C 
HETATM   61  O           0      17.873 -12.558  -3.292  0.00  0.00    -0.271 OA
BRANCH  60  62
HETATM   62  C           0      17.095 -14.596  -4.238  0.00  0.00     0.275 C 
BRANCH  62  63
HETATM   63  N           0      16.740 -15.010  -2.819  0.00  0.00    -0.066 N 
HETATM   64  H           0      17.487 -14.798  -2.149  0.00  0.00     0.275 HD
HETATM   65  H           0      15.872 -14.590  -2.471  0.00  0.00     0.275 HD
HETATM   66  H           0      16.597 -16.024  -2.786  0.00  0.00     0.275 HD
ENDBRANCH  62  63
BRANCH  62  67
HETATM   67  C           0      15.828 -14.656  -5.106  0.00  0.00     0.053 C 
BRANCH  67  68
HETATM   68  C           0      16.069 -15.126  -6.546  0.00  0.00     0.115 C 
BRANCH  68  69
HETATM   69  C           0      16.120 -14.034  -7.633  0.00  0.00     0.172 C 
HETATM   70  O           0      15.040 -13.541  -8.052  0.00  0.00    -0.648 OA
HETATM   71  O           0      17.281 -13.719  -8.051  0.00  0.00    -0.648 OA
ENDBRANCH  68  69
ENDBRANCH  67  68
ENDBRANCH  62  67
ENDBRANCH  60  62
ENDBRANCH  57  58
ENDBRANCH  55  57
ENDBRANCH  52  53
BRANCH  52  72
HETATM   72  C           0      17.394 -10.567  -9.531  0.00  0.00     0.038 C 
BRANCH  72  73
HETATM   73  C           0      17.983  -9.609 -10.584  0.00  0.00    -0.020 C 
HETATM   74  C           0      17.015  -9.343 -11.746  0.00  0.00     0.009 C 
HETATM   75  C           0      18.389  -8.294  -9.898  0.00  0.00     0.009 C 
ENDBRANCH  72  73
ENDBRANCH  52  72
ENDBRANCH  50  52
ENDBRANCH  41  48
ENDBRANCH   1  41
TORSDOF 28
ENDMDL
MODEL 2
REMARK VINA RESULT:      -5.5     17.032     20.761
REMARK  28 active torsions:
REMARK  status: ('A' for Active; 'I' for Inactive)
REMARK       I    between atoms: C_1  and  N_3 
REMARK    1  A    between atoms: C_1  and  C_41 
REMARK    2  A    between atoms: N_3  and  C_5 
REMARK    3  A    between atoms: C_5  and  C_6 
REMARK    4  A    between atoms: C_5  and  C_18 
REMARK       I    between atoms: C_18  and  N_19 
REMARK    5  A    between atoms: C_20  and  C_25 
REMARK       I    between atoms: C_25  and  N_26 
REMARK    6  A    between atoms: N_26  and  C_29 
REMARK    7  A    between atoms: C_29  and  C_30 
REMARK    8  A    between atoms: C_29  and  C_38 
REMARK       I    between atoms: C_30  and  N_31 
REMARK    9  A    between atoms: N_31  and  C_34 
REMARK   10  A    between atoms: C_34  and  C_35 
REMARK   11  A    between atoms: C_38  and  O_39 
REMARK   12  A    between atoms: C_6  and  C_7 
REMARK   13  A    between atoms: C_7  and  C_8 
REMARK   14  A    between atoms: C_8  and  N_9 
REMARK       I    between atoms: N_9  and  C_10 
REMARK       I    between atoms: C_10  and  N_12 
REMARK   15  A    between atoms: C_41  and  C_42 
REMARK   16  A    between atoms: C_41  and  N_48 
REMARK       I    between atoms: N_48  and  C_50 
REMARK   17  A    between atoms: C_50  and  C_52 
REMARK   18  A    between atoms: C_52  and  N_53 
REMARK   19  A    between atoms: C_52  and  C_72 
REMARK       I    between atoms: N_53  and  C_55 
REMARK   20  A    between atoms: C_55  and  C_57 
REMARK   21  A    between atoms: C_57  and  N_58 
REMARK       I    between atoms: N_58  and  C_60 
REMARK   22  A    between atoms: C_60  and  C_62 
REMARK   23  A    between atoms: C_62  and  N_63 
REMARK   24  A    between atoms: C_62  and  C_67 
REMARK   25  A    between atoms: C_67  and  C_68 
REMARK   26  A    between atoms: C_68  and  C_69 
REMARK   27  A    between atoms: C_72  and  C_73 
REMARK   28  A    between atoms: C_42  and  C_43 
REMARK       I    between atoms: C_43  and  N_44 
ROOT
HETATM    1  C           0      -7.597 -12.161  -5.411  0.00  0.00     0.241 C 
HETATM    2  O           0      -8.151 -11.776  -6.447  0.00  0.00    -0.271 OA
HETATM    3  N           0      -7.029 -13.387  -5.319  0.00  0.00    -0.346 N 
HETATM    4  H           0      -6.616 -13.679  -4.441  0.00  0.00     0.163 HD
ENDROOT
BRANCH   3   5
HETATM    5  C           0      -6.884 -14.222  -6.510  0.00  0.00     0.176 C 
BRANCH   5   6
HETATM    6  C           0      -5.938 -13.583  -7.540  0.00  0.00     0.036 C 
BRANCH   6   7
HETATM    7  C           0      -5.496 -14.609  -8.590  0.00  0.00     0.023 C 
BRANCH   7   8
HETATM    8  C           0      -4.069 -14.408  -9.100  0.00  0.00     0.138 C 
BRANCH   8   9
HETATM    9  N           0      -3.295 -15.584  -8.710  0.00  0.00    -0.227 N 
HETATM   10  C           0      -2.864 -15.886  -7.489  0.00  0.00     0.665 C 
HETATM   11  N           0      -3.060 -15.065  -6.449  0.00  0.00    -0.235 N 
HETATM   12  N           0      -2.228 -17.061  -7.325  0.00  0.00    -0.235 N 
HETATM   13  H           0      -2.857 -15.368  -5.508  0.00  0.00     0.174 HD
HETATM   14  H           0      -3.604 -14.223  -6.552  0.00  0.00     0.174 HD
HETATM   15  H           0      -1.677 -17.229  -6.497  0.00  0.00     0.174 HD
HETATM   16  H           0      -2.001 -17.566  -8.185  0.00  0.00     0.174 HD
HETATM   17  H           0      -3.015 -16.268  -9.434  0.00  0.00     0.177 HD
ENDBRANCH   8   9
ENDBRANCH   7   8
ENDBRANCH   6   7
ENDBRANCH   5   6
BRANCH   5  18
HETATM   18  C           0      -6.568 -15.710  -6.239  0.00  0.00     0.243 C 
HETATM   19  N           0      -7.147 -16.686  -6.990  0.00  0.00    -0.337 N 
HETATM   20  C           0      -6.735 -18.086  -6.794  0.00  0.00     0.179 C 
HETATM   21  C           0      -8.452 -16.624  -7.683  0.00  0.00     0.127 C 
HETATM   22  C           0      -7.986 -18.925  -7.179  0.00  0.00     0.037 C 
HETATM   23  C           0      -9.138 -17.908  -7.206  0.00  0.00     0.022 C 
HETATM   24  O           0      -5.727 -15.962  -5.371  0.00  0.00    -0.271 OA
BRANCH  20  25
HETATM   25  C           0      -5.517 -18.526  -7.624  0.00  0.00     0.241 C 
HETATM   26  N           0      -5.573 -18.362  -8.971  0.00  0.00    -0.344 N 
HETATM   27  H           0      -6.400 -17.949  -9.395  0.00  0.00     0.163 HD
HETATM   28  O           0      -4.548 -19.021  -7.043  0.00  0.00    -0.271 OA
BRANCH  26  29
HETATM   29  C           0      -4.557 -18.913  -9.855  0.00  0.00     0.200 C 
BRANCH  29  30
HETATM   30  C           0      -4.024 -17.958 -10.942  0.00  0.00     0.242 C 
HETATM   31  N           0      -4.873 -17.558 -11.899  0.00  0.00    -0.354 N 
HETATM   32  H           0      -5.857 -17.815 -11.908  0.00  0.00     0.162 HD
HETATM   33  O           0      -2.836 -17.604 -10.892  0.00  0.00    -0.271 OA
BRANCH  31  34
HETATM   34  C           0      -4.512 -16.624 -12.949  0.00  0.00     0.203 C 
BRANCH  34  35
HETATM   35  C           0      -5.017 -15.195 -12.601  0.00  0.00     0.307 C 
HETATM   36  O           0      -6.186 -15.113 -12.138  0.00  0.00    -0.186 OA
HETATM   37  O           0      -4.195 -14.272 -12.820  0.00  0.00    -0.186 OA
ENDBRANCH  34  35
ENDBRANCH  31  34
ENDBRANCH  29  30
BRANCH  29  38
HETATM   38  C           0      -5.046 -20.219 -10.516  0.00  0.00     0.199 C 
BRANCH  38  39
HETATM   39  O           0      -4.645 -21.376  -9.806  0.00  0.00    -0.398 OA
HETATM   40  H           0      -4.784 -22.166 -10.357  0.00  0.00     0.209 HD
ENDBRANCH  38  39
ENDBRANCH  29  38
ENDBRANCH  26  29
ENDBRANCH  20  25
ENDBRANCH   5  18
ENDBRANCH   3   5
BRANCH   1  41
HETATM   41  C           0      -7.483 -11.242  -4.177  0.00  0.00     0.185 C 
BRANCH  41  42
HETATM   42  C           0      -8.447 -11.649  -3.046  0.00  0.00     0.137 C 
BRANCH  42  43
HETATM   43  C           0      -9.714 -12.367  -3.510  0.00  0.00     0.217 C 
HETATM   44  N           0     -10.750 -11.541  -3.777  0.00  0.00    -0.370 N 
HETATM   45  H           0     -11.641 -11.969  -3.986  0.00  0.00     0.159 HD
HETATM   46  H           0     -10.708 -10.528  -3.612  0.00  0.00     0.159 HD
HETATM   47  O           0      -9.776 -13.596  -3.592  0.00  0.00    -0.274 OA
ENDBRANCH  42  43
ENDBRANCH  41  42
BRANCH  41  48
HETATM   48  N           0      -7.762  -9.848  -4.502  0.00  0.00    -0.346 N 
HETATM   49  H           0      -8.705  -9.599  -4.770  0.00  0.00     0.163 HD
HETATM   50  C           0      -6.815  -8.889  -4.559  0.00  0.00     0.241 C 
HETATM   51  O           0      -5.614  -9.109  -4.363  0.00  0.00    -0.271 OA
BRANCH  50  52
HETATM   52  C           0      -7.302  -7.458  -4.857  0.00  0.00     0.177 C 
BRANCH  52  53
HETATM   53  N           0      -7.489  -7.219  -6.284  0.00  0.00    -0.346 N 
HETATM   54  H           0      -7.794  -7.986  -6.871  0.00  0.00     0.163 HD
HETATM   55  C           0      -7.386  -5.975  -6.825  0.00  0.00     0.236 C 
HETATM   56  O           0      -7.134  -4.975  -6.159  0.00  0.00    -0.272 OA
BRANCH  55  57
HETATM   57  C           0      -7.631  -5.862  -8.336  0.00  0.00     0.225 C 
BRANCH  57  58
HETATM   58  N           0      -6.411  -5.777  -9.136  0.00  0.00    -0.351 N 
HETATM   59  H           0      -5.930  -4.889  -9.152  0.00  0.00     0.163 HD
HETATM   60  C           0      -5.819  -6.914  -9.572  0.00  0.00     0.248 C 
HETATM   61  O           0      -6.336  -8.022  -9.386  0.00  0.00    -0.271 OA
BRANCH  60  62
HETATM   62  C           0      -4.496  -6.858 -10.343  0.00  0.00     0.275 C 
BRANCH  62  63
HETATM   63  N           0      -4.542  -7.614 -11.661  0.00  0.00    -0.066 N 
HETATM   64  H           0      -5.367  -8.217 -11.740  0.00  0.00     0.275 HD
HETATM   65  H           0      -4.512  -7.008 -12.486  0.00  0.00     0.275 HD
HETATM   66  H           0      -3.723  -8.227 -11.730  0.00  0.00     0.275 HD
ENDBRANCH  62  63
BRANCH  62  67
HETATM   67  C           0      -3.960  -5.440 -10.601  0.00  0.00     0.053 C 
BRANCH  67  68
HETATM   68  C           0      -3.985  -5.011 -12.073  0.00  0.00     0.115 C 
BRANCH  68  69
HETATM   69  C           0      -2.647  -5.067 -12.836  0.00  0.00     0.172 C 
HETATM   70  O           0      -2.466  -4.284 -13.805  0.00  0.00    -0.648 OA
HETATM   71  O           0      -1.811  -5.939 -12.430  0.00  0.00    -0.648 OA
ENDBRANCH  68  69
ENDBRANCH  67  68
ENDBRANCH  62  67
ENDBRANCH  60  62
ENDBRANCH  57  58
ENDBRANCH  55  57
ENDBRANCH  52  53
BRANCH  52  72
HETATM   72  C           0      -8.621  -7.138  -4.116  0.00  0.00     0.038 C 
BRANCH  72  73
HETATM   73  C           0      -8.500  -6.553  -2.695  0.00  0.00    -0.020 C 
HETATM   74  C           0      -8.166  -5.054  -2.702  0.00  0.00     0.009 C 
HETATM   75  C           0      -9.804  -6.820  -1.927  0.00  0.00     0.009 C 
ENDBRANCH  72  73
ENDBRANCH  52  72
ENDBRANCH  50  52
ENDBRANCH  41  48
ENDBRANCH   1  41
TORSDOF 28
ENDMDL
MODEL 3
REMARK VINA RESULT:      -5.5     14.785     20.638
REMARK  28 active torsions:
REMARK  status: ('A' for Active; 'I' for Inactive)
REMARK       I    between atoms: C_1  and  N_3 
REMARK    1  A    between atoms: C_1  and  C_41 
REMARK    2  A    between atoms: N_3  and  C_5 
REMARK    3  A    between atoms: C_5  and  C_6 
REMARK    4  A    between atoms: C_5  and  C_18 
REMARK       I    between atoms: C_18  and  N_19 
REMARK    5  A    between atoms: C_20  and  C_25 
REMARK       I    between atoms: C_25  and  N_26 
REMARK    6  A    between atoms: N_26  and  C_29 
REMARK    7  A    between atoms: C_29  and  C_30 
REMARK    8  A    between atoms: C_29  and  C_38 
REMARK       I    between atoms: C_30  and  N_31 
REMARK    9  A    between atoms: N_31  and  C_34 
REMARK   10  A    between atoms: C_34  and  C_35 
REMARK   11  A    between atoms: C_38  and  O_39 
REMARK   12  A    between atoms: C_6  and  C_7 
REMARK   13  A    between atoms: C_7  and  C_8 
REMARK   14  A    between atoms: C_8  and  N_9 
REMARK       I    between atoms: N_9  and  C_10 
REMARK       I    between atoms: C_10  and  N_12 
REMARK   15  A    between atoms: C_41  and  C_42 
REMARK   16  A    between atoms: C_41  and  N_48 
REMARK       I    between atoms: N_48  and  C_50 
REMARK   17  A    between atoms: C_50  and  C_52 
REMARK   18  A    between atoms: C_52  and  N_53 
REMARK   19  A    between atoms: C_52  and  C_72 
REMARK       I    between atoms: N_53  and  C_55 
REMARK   20  A    between atoms: C_55  and  C_57 
REMARK   21  A    between atoms: C_57  and  N_58 
REMARK       I    between atoms: N_58  and  C_60 
REMARK   22  A    between atoms: C_60  and  C_62 
REMARK   23  A    between atoms: C_62  and  N_63 
REMARK   24  A    between atoms: C_62  and  C_67 
REMARK   25  A    between atoms: C_67  and  C_68 
REMARK   26  A    between atoms: C_68  and  C_69 
REMARK   27  A    between atoms: C_72  and  C_73 
REMARK   28  A    between atoms: C_42  and  C_43 
REMARK       I    between atoms: C_43  and  N_44 
ROOT
HETATM    1  C           0      15.103   3.329 -10.178  0.00  0.00     0.241 C 
HETATM    2  O           0      16.284   3.042 -10.404  0.00  0.00    -0.271 OA
HETATM    3  N           0      14.583   3.278  -8.929  0.00  0.00    -0.346 N 
HETATM    4  H           0      13.602   3.486  -8.790  0.00  0.00     0.163 HD
ENDROOT
BRANCH   3   5
HETATM    5  C           0      15.456   3.065  -7.776  0.00  0.00     0.176 C 
BRANCH   5   6
HETATM    6  C           0      15.500   4.301  -6.862  0.00  0.00     0.036 C 
BRANCH   6   7
HETATM    7  C           0      16.875   4.977  -6.921  0.00  0.00     0.023 C 
BRANCH   7   8
HETATM    8  C           0      17.128   5.772  -8.202  0.00  0.00     0.138 C 
BRANCH   8   9
HETATM    9  N           0      17.532   7.120  -7.809  0.00  0.00    -0.227 N 
HETATM   10  C           0      16.732   8.160  -7.594  0.00  0.00     0.665 C 
HETATM   11  N           0      15.408   8.083  -7.784  0.00  0.00    -0.235 N 
HETATM   12  N           0      17.298   9.303  -7.164  0.00  0.00    -0.235 N 
HETATM   13  H           0      14.801   8.830  -7.482  0.00  0.00     0.174 HD
HETATM   14  H           0      14.972   7.208  -8.030  0.00  0.00     0.174 HD
HETATM   15  H           0      16.791  10.173  -7.219  0.00  0.00     0.174 HD
HETATM   16  H           0      18.320   9.322  -7.172  0.00  0.00     0.174 HD
HETATM   17  H           0      18.537   7.334  -7.696  0.00  0.00     0.177 HD
ENDBRANCH   8   9
ENDBRANCH   7   8
ENDBRANCH   6   7
ENDBRANCH   5   6
BRANCH   5  18
HETATM   18  C           0      15.221   1.749  -7.002  0.00  0.00     0.243 C 
HETATM   19  N           0      16.243   0.874  -6.803  0.00  0.00    -0.337 N 
HETATM   20  C           0      16.023  -0.312  -5.957  0.00  0.00     0.179 C 
HETATM   21  C           0      17.436   0.685  -7.655  0.00  0.00     0.127 C 
HETATM   22  C           0      17.006  -1.382  -6.509  0.00  0.00     0.037 C 
HETATM   23  C           0      17.446  -0.832  -7.875  0.00  0.00     0.022 C 
HETATM   24  O           0      14.098   1.567  -6.523  0.00  0.00    -0.271 OA
BRANCH  20  25
HETATM   25  C           0      16.259  -0.089  -4.454  0.00  0.00     0.241 C 
HETATM   26  N           0      15.192   0.255  -3.687  0.00  0.00    -0.344 N 
HETATM   27  H           0      14.273   0.346  -4.113  0.00  0.00     0.163 HD
HETATM   28  O           0      17.401  -0.214  -4.006  0.00  0.00    -0.271 OA
BRANCH  26  29
HETATM   29  C           0      15.344   0.666  -2.299  0.00  0.00     0.200 C 
BRANCH  29  30
HETATM   30  C           0      14.765  -0.298  -1.246  0.00  0.00     0.242 C 
HETATM   31  N           0      15.466  -1.403  -0.951  0.00  0.00    -0.354 N 
HETATM   32  H           0      16.379  -1.602  -1.353  0.00  0.00     0.162 HD
HETATM   33  O           0      13.677  -0.020  -0.718  0.00  0.00    -0.271 OA
BRANCH  31  34
HETATM   34  C           0      15.057  -2.365   0.055  0.00  0.00     0.203 C 
BRANCH  34  35
HETATM   35  C           0      16.093  -3.521   0.152  0.00  0.00     0.307 C 
HETATM   36  O           0      16.231  -4.235  -0.878  0.00  0.00    -0.186 OA
HETATM   37  O           0      16.685  -3.615   1.255  0.00  0.00    -0.186 OA
ENDBRANCH  34  35
ENDBRANCH  31  34
ENDBRANCH  29  30
BRANCH  29  38
HETATM   38  C           0      14.764   2.079  -2.074  0.00  0.00     0.199 C 
BRANCH  38  39
HETATM   39  O           0      13.852   2.465  -3.085  0.00  0.00    -0.398 OA
HETATM   40  H           0      13.145   3.010  -2.701  0.00  0.00     0.209 HD
ENDBRANCH  38  39
ENDBRANCH  29  38
ENDBRANCH  26  29
ENDBRANCH  20  25
ENDBRANCH   5  18
ENDBRANCH   3   5
BRANCH   1  41
HETATM   41  C           0      14.168   3.810 -11.307  0.00  0.00     0.185 C 
BRANCH  41  42
HETATM   42  C           0      14.229   2.903 -12.551  0.00  0.00     0.137 C 
BRANCH  42  43
HETATM   43  C           0      13.587   3.491 -13.807  0.00  0.00     0.217 C 
HETATM   44  N           0      12.289   3.158 -13.971  0.00  0.00    -0.370 N 
HETATM   45  H           0      11.845   3.433 -14.836  0.00  0.00     0.159 HD
HETATM   46  H           0      11.799   2.509 -13.343  0.00  0.00     0.159 HD
HETATM   47  O           0      14.228   4.177 -14.608  0.00  0.00    -0.274 OA
ENDBRANCH  42  43
ENDBRANCH  41  42
BRANCH  41  48
HETATM   48  N           0      14.483   5.165 -11.743  0.00  0.00    -0.346 N 
HETATM   49  H           0      14.855   5.293 -12.676  0.00  0.00     0.163 HD
HETATM   50  C           0      14.399   6.248 -10.943  0.00  0.00     0.241 C 
HETATM   51  O           0      14.068   6.188  -9.753  0.00  0.00    -0.271 OA
BRANCH  50  52
HETATM   52  C           0      14.711   7.609 -11.593  0.00  0.00     0.177 C 
BRANCH  52  53
HETATM   53  N           0      13.592   8.541 -11.497  0.00  0.00    -0.346 N 
HETATM   54  H           0      13.493   9.101 -10.659  0.00  0.00     0.163 HD
HETATM   55  C           0      12.756   8.771 -12.545  0.00  0.00     0.236 C 
HETATM   56  O           0      12.880   8.218 -13.635  0.00  0.00    -0.272 OA
BRANCH  55  57
HETATM   57  C           0      11.635   9.794 -12.316  0.00  0.00     0.225 C 
BRANCH  57  58
HETATM   58  N           0      11.682  10.455 -11.013  0.00  0.00    -0.351 N 
HETATM   59  H           0      12.270  10.038 -10.305  0.00  0.00     0.163 HD
HETATM   60  C           0      11.198  11.712 -10.886  0.00  0.00     0.248 C 
HETATM   61  O           0      10.634  12.284 -11.825  0.00  0.00    -0.271 OA
BRANCH  60  62
HETATM   62  C           0      11.308  12.459  -9.551  0.00  0.00     0.275 C 
BRANCH  62  63
HETATM   63  N           0      10.022  12.424  -8.742  0.00  0.00    -0.066 N 
HETATM   64  H           0       9.990  13.155  -8.022  0.00  0.00     0.275 HD
HETATM   65  H           0       9.173  12.501  -9.310  0.00  0.00     0.275 HD
HETATM   66  H           0       9.954  11.527  -8.250  0.00  0.00     0.275 HD
ENDBRANCH  62  63
BRANCH  62  67
HETATM   67  C           0      12.473  12.008  -8.655  0.00  0.00     0.053 C 
BRANCH  67  68
HETATM   68  C           0      13.838  12.583  -9.054  0.00  0.00     0.115 C 
BRANCH  68  69
HETATM   69  C           0      14.840  11.607  -9.702  0.00  0.00     0.172 C 
HETATM   70  O           0      15.758  11.118  -8.992  0.00  0.00    -0.648 OA
HETATM   71  O           0      14.671  11.379 -10.943  0.00  0.00    -0.648 OA
ENDBRANCH  68  69
ENDBRANCH  67  68
ENDBRANCH  62  67
ENDBRANCH  60  62
ENDBRANCH  57  58
ENDBRANCH  55  57
ENDBRANCH  52  53
BRANCH  52  72
HETATM   72  C           0      15.967   8.264 -10.973  0.00  0.00     0.038 C 
BRANCH  72  73
HETATM   73  C           0      17.206   8.396 -11.879  0.00  0.00    -0.020 C 
HETATM   74  C           0      18.171   9.491 -11.402  0.00  0.00     0.009 C 
HETATM   75  C           0      17.918   7.036 -11.962  0.00  0.00     0.009 C 
ENDBRANCH  72  73
ENDBRANCH  52  72
ENDBRANCH  50  52
ENDBRANCH  41  48
ENDBRANCH   1  41
TORSDOF 28
ENDMDL
MODEL 4
REMARK VINA RESULT:      -5.3     25.644     28.702
REMARK  28 active torsions:
REMARK  status: ('A' for Active; 'I' for Inactive)
REMARK       I    between atoms: C_1  and  N_3 
REMARK    1  A    between atoms: C_1  and  C_41 
REMARK    2  A    between atoms: N_3  and  C_5 
REMARK    3  A    between atoms: C_5  and  C_6 
REMARK    4  A    between atoms: C_5  and  C_18 
REMARK       I    between atoms: C_18  and  N_19 
REMARK    5  A    between atoms: C_20  and  C_25 
REMARK       I    between atoms: C_25  and  N_26 
REMARK    6  A    between atoms: N_26  and  C_29 
REMARK    7  A    between atoms: C_29  and  C_30 
REMARK    8  A    between atoms: C_29  and  C_38 
REMARK       I    between atoms: C_30  and  N_31 
REMARK    9  A    between atoms: N_31  and  C_34 
REMARK   10  A    between atoms: C_34  and  C_35 
REMARK   11  A    between atoms: C_38  and  O_39 
REMARK   12  A    between atoms: C_6  and  C_7 
REMARK   13  A    between atoms: C_7  and  C_8 
REMARK   14  A    between atoms: C_8  and  N_9 
REMARK       I    between atoms: N_9  and  C_10 
REMARK       I    between atoms: C_10  and  N_12 
REMARK   15  A    between atoms: C_41  and  C_42 
REMARK   16  A    between atoms: C_41  and  N_48 
REMARK       I    between atoms: N_48  and  C_50 
REMARK   17  A    between atoms: C_50  and  C_52 
REMARK   18  A    between atoms: C_52  and  N_53 
REMARK   19  A    between atoms: C_52  and  C_72 
REMARK       I    between atoms: N_53  and  C_55 
REMARK   20  A    between atoms: C_55  and  C_57 
REMARK   21  A    between atoms: C_57  and  N_58 
REMARK       I    between atoms: N_58  and  C_60 
REMARK   22  A    between atoms: C_60  and  C_62 
REMARK   23  A    between atoms: C_62  and  N_63 
REMARK   24  A    between atoms: C_62  and  C_67 
REMARK   25  A    between atoms: C_67  and  C_68 
REMARK   26  A    between atoms: C_68  and  C_69 
REMARK   27  A    between atoms: C_72  and  C_73 
REMARK   28  A    between atoms: C_42  and  C_43 
REMARK       I    between atoms: C_43  and  N_44 
ROOT
HETATM    1  C           0      -7.194  -3.828   8.349  0.00  0.00     0.241 C 
HETATM    2  O           0      -6.885  -3.532   9.509  0.00  0.00    -0.271 OA
HETATM    3  N           0      -7.441  -5.108   7.982  0.00  0.00    -0.346 N 
HETATM    4  H           0      -7.657  -5.314   7.014  0.00  0.00     0.163 HD
ENDROOT
BRANCH   3   5
HETATM    5  C           0      -7.537  -6.159   8.993  0.00  0.00     0.176 C 
BRANCH   5   6
HETATM    6  C           0      -8.997  -6.432   9.391  0.00  0.00     0.036 C 
BRANCH   6   7
HETATM    7  C           0      -9.942  -6.198   8.207  0.00  0.00     0.023 C 
BRANCH   7   8
HETATM    8  C           0     -10.261  -7.458   7.402  0.00  0.00     0.138 C 
BRANCH   8   9
HETATM    9  N           0     -10.617  -7.036   6.050  0.00  0.00    -0.227 N 
HETATM   10  C           0      -9.789  -6.874   5.022  0.00  0.00     0.665 C 
HETATM   11  N           0      -8.465  -7.037   5.150  0.00  0.00    -0.235 N 
HETATM   12  N           0     -10.329  -6.549   3.832  0.00  0.00    -0.235 N 
HETATM   13  H           0      -7.868  -7.052   4.337  0.00  0.00     0.174 HD
HETATM   14  H           0      -8.067  -7.356   6.019  0.00  0.00     0.174 HD
HETATM   15  H           0      -9.747  -6.182   3.095  0.00  0.00     0.174 HD
HETATM   16  H           0     -11.323  -6.314   3.846  0.00  0.00     0.174 HD
HETATM   17  H           0     -11.603  -6.809   5.834  0.00  0.00     0.177 HD
ENDBRANCH   8   9
ENDBRANCH   7   8
ENDBRANCH   6   7
ENDBRANCH   5   6
BRANCH   5  18
HETATM   18  C           0      -6.743  -7.448   8.685  0.00  0.00     0.243 C 
HETATM   19  N           0      -6.008  -8.054   9.656  0.00  0.00    -0.337 N 
HETATM   20  C           0      -5.362  -9.347   9.370  0.00  0.00     0.179 C 
HETATM   21  C           0      -5.385  -7.415  10.835  0.00  0.00     0.127 C 
HETATM   22  C           0      -4.110  -9.376  10.290  0.00  0.00     0.037 C 
HETATM   23  C           0      -3.941  -7.922  10.757  0.00  0.00     0.022 C 
HETATM   24  O           0      -6.862  -7.929   7.554  0.00  0.00    -0.271 OA
BRANCH  20  25
HETATM   25  C           0      -6.244 -10.582   9.623  0.00  0.00     0.241 C 
HETATM   26  N           0      -6.529 -11.385   8.566  0.00  0.00    -0.344 N 
HETATM   27  H           0      -6.152 -11.164   7.648  0.00  0.00     0.163 HD
HETATM   28  O           0      -6.668 -10.787  10.762  0.00  0.00    -0.271 OA
BRANCH  26  29
HETATM   29  C           0      -7.499 -12.466   8.662  0.00  0.00     0.200 C 
BRANCH  29  30
HETATM   30  C           0      -6.950 -13.818   9.157  0.00  0.00     0.242 C 
HETATM   31  N           0      -7.616 -14.449  10.134  0.00  0.00    -0.354 N 
HETATM   32  H           0      -8.489 -14.099  10.523  0.00  0.00     0.162 HD
HETATM   33  O           0      -5.916 -14.266   8.638  0.00  0.00    -0.271 OA
BRANCH  31  34
HETATM   34  C           0      -7.234 -15.748  10.655  0.00  0.00     0.203 C 
BRANCH  34  35
HETATM   35  C           0      -7.888 -16.883   9.815  0.00  0.00     0.307 C 
HETATM   36  O           0      -7.097 -17.679   9.241  0.00  0.00    -0.186 OA
HETATM   37  O           0      -9.143 -16.881   9.804  0.00  0.00    -0.186 OA
ENDBRANCH  34  35
ENDBRANCH  31  34
ENDBRANCH  29  30
BRANCH  29  38
HETATM   38  C           0      -8.234 -12.671   7.321  0.00  0.00     0.199 C 
BRANCH  38  39
HETATM   39  O           0      -7.535 -13.529   6.438  0.00  0.00    -0.398 OA
HETATM   40  H           0      -7.027 -14.183   6.947  0.00  0.00     0.209 HD
ENDBRANCH  38  39
ENDBRANCH  29  38
ENDBRANCH  26  29
ENDBRANCH  20  25
ENDBRANCH   5  18
ENDBRANCH   3   5
BRANCH   1  41
HETATM   41  C           0      -7.362  -2.743   7.265  0.00  0.00     0.185 C 
BRANCH  41  42
HETATM   42  C           0      -6.838  -1.368   7.720  0.00  0.00     0.137 C 
BRANCH  42  43
HETATM   43  C           0      -6.264  -0.497   6.603  0.00  0.00     0.217 C 
HETATM   44  N           0      -4.931  -0.297   6.690  0.00  0.00    -0.370 N 
HETATM   45  H           0      -4.517   0.355   6.038  0.00  0.00     0.159 HD
HETATM   46  H           0      -4.368  -0.640   7.477  0.00  0.00     0.159 HD
HETATM   47  O           0      -6.979  -0.001   5.729  0.00  0.00    -0.274 OA
ENDBRANCH  42  43
ENDBRANCH  41  42
BRANCH  41  48
HETATM   48  N           0      -8.756  -2.568   6.874  0.00  0.00    -0.346 N 
HETATM   49  H           0      -9.350  -1.998   7.463  0.00  0.00     0.163 HD
HETATM   50  C           0      -9.324  -3.197   5.825  0.00  0.00     0.241 C 
HETATM   51  O           0      -8.719  -4.004   5.109  0.00  0.00    -0.271 OA
BRANCH  50  52
HETATM   52  C           0     -10.792  -2.842   5.523  0.00  0.00     0.177 C 
BRANCH  52  53
HETATM   53  N           0     -11.180  -3.191   4.160  0.00  0.00    -0.346 N 
HETATM   54  H           0     -11.533  -4.122   3.976  0.00  0.00     0.163 HD
HETATM   55  C           0     -11.200  -2.270   3.159  0.00  0.00     0.236 C 
HETATM   56  O           0     -10.897  -1.092   3.328  0.00  0.00    -0.272 OA
BRANCH  55  57
HETATM   57  C           0     -11.651  -2.767   1.779  0.00  0.00     0.225 C 
BRANCH  57  58
HETATM   58  N           0     -10.744  -3.733   1.162  0.00  0.00    -0.351 N 
HETATM   59  H           0     -10.141  -4.259   1.779  0.00  0.00     0.163 HD
HETATM   60  C           0     -10.938  -4.099  -0.127  0.00  0.00     0.248 C 
HETATM   61  O           0     -11.809  -3.568  -0.824  0.00  0.00    -0.271 OA
BRANCH  60  62
HETATM   62  C           0     -10.052  -5.170  -0.774  0.00  0.00     0.275 C 
BRANCH  62  63
HETATM   63  N           0     -10.727  -6.529  -0.857  0.00  0.00    -0.066 N 
HETATM   64  H           0     -10.813  -6.983   0.059  0.00  0.00     0.275 HD
HETATM   65  H           0     -11.656  -6.505  -1.288  0.00  0.00     0.275 HD
HETATM   66  H           0     -10.161  -7.155  -1.441  0.00  0.00     0.275 HD
ENDBRANCH  62  63
BRANCH  62  67
HETATM   67  C           0      -9.504  -4.801  -2.162  0.00  0.00     0.053 C 
BRANCH  67  68
HETATM   68  C           0      -8.127  -5.398  -2.478  0.00  0.00     0.115 C 
BRANCH  68  69
HETATM   69  C           0      -8.104  -6.656  -3.369  0.00  0.00     0.172 C 
HETATM   70  O           0      -8.813  -7.645  -3.044  0.00  0.00    -0.648 OA
HETATM   71  O           0      -7.334  -6.606  -4.382  0.00  0.00    -0.648 OA
ENDBRANCH  68  69
ENDBRANCH  67  68
ENDBRANCH  62  67
ENDBRANCH  60  62
ENDBRANCH  57  58
ENDBRANCH  55  57
ENDBRANCH  52  53
BRANCH  52  72
HETATM   72  C           0     -11.761  -3.526   6.514  0.00  0.00     0.038 C 
BRANCH  72  73
HETATM   73  C           0     -12.340  -2.651   7.642  0.00  0.00    -0.020 C 
HETATM   74  C           0     -13.853  -2.842   7.820  0.00  0.00     0.009 C 
HETATM   75  C           0     -11.592  -2.956   8.950  0.00  0.00     0.009 C 
ENDBRANCH  72  73
ENDBRANCH  52  72
ENDBRANCH  50  52
ENDBRANCH  41  48
ENDBRANCH   1  41
TORSDOF 28
ENDMDL
MODEL 5
REMARK VINA RESULT:      -5.3      4.572     10.291
REMARK  28 active torsions:
REMARK  status: ('A' for Active; 'I' for Inactive)
REMARK       I    between atoms: C_1  and  N_3 
REMARK    1  A    between atoms: C_1  and  C_41 
REMARK    2  A    between atoms: N_3  and  C_5 
REMARK    3  A    between atoms: C_5  and  C_6 
REMARK    4  A    between atoms: C_5  and  C_18 
REMARK       I    between atoms: C_18  and  N_19 
REMARK    5  A    between atoms: C_20  and  C_25 
REMARK       I    between atoms: C_25  and  N_26 
REMARK    6  A    between atoms: N_26  and  C_29 
REMARK    7  A    between atoms: C_29  and  C_30 
REMARK    8  A    between atoms: C_29  and  C_38 
REMARK       I    between atoms: C_30  and  N_31 
REMARK    9  A    between atoms: N_31  and  C_34 
REMARK   10  A    between atoms: C_34  and  C_35 
REMARK   11  A    between atoms: C_38  and  O_39 
REMARK   12  A    between atoms: C_6  and  C_7 
REMARK   13  A    between atoms: C_7  and  C_8 
REMARK   14  A    between atoms: C_8  and  N_9 
REMARK       I    between atoms: N_9  and  C_10 
REMARK       I    between atoms: C_10  and  N_12 
REMARK   15  A    between atoms: C_41  and  C_42 
REMARK   16  A    between atoms: C_41  and  N_48 
REMARK       I    between atoms: N_48  and  C_50 
REMARK   17  A    between atoms: C_50  and  C_52 
REMARK   18  A    between atoms: C_52  and  N_53 
REMARK   19  A    between atoms: C_52  and  C_72 
REMARK       I    between atoms: N_53  and  C_55 
REMARK   20  A    between atoms: C_55  and  C_57 
REMARK   21  A    between atoms: C_57  and  N_58 
REMARK       I    between atoms: N_58  and  C_60 
REMARK   22  A    between atoms: C_60  and  C_62 
REMARK   23  A    between atoms: C_62  and  N_63 
REMARK   24  A    between atoms: C_62  and  C_67 
REMARK   25  A    between atoms: C_67  and  C_68 
REMARK   26  A    between atoms: C_68  and  C_69 
REMARK   27  A    between atoms: C_72  and  C_73 
REMARK   28  A    between atoms: C_42  and  C_43 
REMARK       I    between atoms: C_43  and  N_44 
ROOT
HETATM    1  C           0      15.468 -11.583 -13.253  0.00  0.00     0.241 C 
HETATM    2  O           0      16.355 -11.647 -14.112  0.00  0.00    -0.271 OA
HETATM    3  N           0      14.489 -10.649 -13.306  0.00  0.00    -0.346 N 
HETATM    4  H           0      13.801 -10.607 -12.564  0.00  0.00     0.163 HD
ENDROOT
BRANCH   3   5
HETATM    5  C           0      14.340  -9.805 -14.490  0.00  0.00     0.176 C 
BRANCH   5   6
HETATM    6  C           0      13.307 -10.381 -15.472  0.00  0.00     0.036 C 
BRANCH   6   7
HETATM    7  C           0      13.994 -10.964 -16.712  0.00  0.00     0.023 C 
BRANCH   7   8
HETATM    8  C           0      13.169 -12.019 -17.448  0.00  0.00     0.138 C 
BRANCH   8   9
HETATM    9  N           0      11.897 -11.402 -17.817  0.00  0.00    -0.227 N 
HETATM   10  C           0      10.688 -11.753 -17.391  0.00  0.00     0.665 C 
HETATM   11  N           0      10.503 -12.804 -16.581  0.00  0.00    -0.235 N 
HETATM   12  N           0       9.643 -11.006 -17.795  0.00  0.00    -0.235 N 
HETATM   13  H           0       9.604 -12.972 -16.153  0.00  0.00     0.174 HD
HETATM   14  H           0      11.289 -13.317 -16.214  0.00  0.00     0.174 HD
HETATM   15  H           0       8.703 -11.359 -17.708  0.00  0.00     0.174 HD
HETATM   16  H           0       9.849 -10.308 -18.513  0.00  0.00     0.174 HD
HETATM   17  H           0      11.893 -10.621 -18.494  0.00  0.00     0.177 HD
ENDBRANCH   8   9
ENDBRANCH   7   8
ENDBRANCH   6   7
ENDBRANCH   5   6
BRANCH   5  18
HETATM   18  C           0      14.133  -8.300 -14.207  0.00  0.00     0.243 C 
HETATM   19  N           0      14.543  -7.366 -15.108  0.00  0.00    -0.337 N 
HETATM   20  C           0      14.223  -5.948 -14.872  0.00  0.00     0.179 C 
HETATM   21  C           0      15.647  -7.491 -16.083  0.00  0.00     0.127 C 
HETATM   22  C           0      15.368  -5.161 -15.568  0.00  0.00     0.037 C 
HETATM   23  C           0      16.456  -6.215 -15.827  0.00  0.00     0.022 C 
HETATM   24  O           0      13.526  -7.996 -13.177  0.00  0.00    -0.271 OA
BRANCH  20  25
HETATM   25  C           0      12.855  -5.495 -15.410  0.00  0.00     0.241 C 
HETATM   26  N           0      12.794  -5.038 -16.687  0.00  0.00    -0.344 N 
HETATM   27  H           0      13.637  -5.014 -17.255  0.00  0.00     0.163 HD
HETATM   28  O           0      11.874  -5.548 -14.664  0.00  0.00    -0.271 OA
BRANCH  26  29
HETATM   29  C           0      11.593  -4.416 -17.225  0.00  0.00     0.200 C 
BRANCH  29  30
HETATM   30  C           0      10.498  -5.384 -17.714  0.00  0.00     0.242 C 
HETATM   31  N           0       9.452  -5.611 -16.907  0.00  0.00    -0.354 N 
HETATM   32  H           0       9.327  -5.136 -16.016  0.00  0.00     0.162 HD
HETATM   33  O           0      10.629  -5.916 -18.827  0.00  0.00    -0.271 OA
BRANCH  31  34
HETATM   34  C           0       8.332  -6.460 -17.269  0.00  0.00     0.203 C 
BRANCH  34  35
HETATM   35  C           0       8.116  -7.560 -16.190  0.00  0.00     0.307 C 
HETATM   36  O           0       8.811  -8.605 -16.313  0.00  0.00    -0.186 OA
HETATM   37  O           0       7.268  -7.283 -15.309  0.00  0.00    -0.186 OA
ENDBRANCH  34  35
ENDBRANCH  31  34
ENDBRANCH  29  30
BRANCH  29  38
HETATM   38  C           0      11.941  -3.422 -18.354  0.00  0.00     0.199 C 
BRANCH  38  39
HETATM   39  O           0      12.810  -3.977 -19.324  0.00  0.00    -0.398 OA
HETATM   40  H           0      12.708  -3.504 -20.167  0.00  0.00     0.209 HD
ENDBRANCH  38  39
ENDBRANCH  29  38
ENDBRANCH  26  29
ENDBRANCH  20  25
ENDBRANCH   5  18
ENDBRANCH   3   5
BRANCH   1  41
HETATM   41  C           0      15.403 -12.601 -12.094  0.00  0.00     0.185 C 
BRANCH  41  42
HETATM   42  C           0      15.070 -14.025 -12.578  0.00  0.00     0.137 C 
BRANCH  42  43
HETATM   43  C           0      13.654 -14.202 -13.126  0.00  0.00     0.217 C 
HETATM   44  N           0      12.773 -14.691 -12.227  0.00  0.00    -0.370 N 
HETATM   45  H           0      11.849 -14.925 -12.565  0.00  0.00     0.159 HD
HETATM   46  H           0      13.048 -14.984 -11.282  0.00  0.00     0.159 HD
HETATM   47  O           0      13.372 -13.950 -14.300  0.00  0.00    -0.274 OA
ENDBRANCH  42  43
ENDBRANCH  41  42
BRANCH  41  48
HETATM   48  N           0      14.403 -12.237 -11.098  0.00  0.00    -0.346 N 
HETATM   49  H           0      13.451 -12.090 -11.407  0.00  0.00     0.163 HD
HETATM   50  C           0      14.691 -11.992  -9.803  0.00  0.00     0.241 C 
HETATM   51  O           0      15.839 -12.029  -9.344  0.00  0.00    -0.271 OA
BRANCH  50  52
HETATM   52  C           0      13.497 -11.682  -8.880  0.00  0.00     0.177 C 
BRANCH  52  53
HETATM   53  N           0      12.658 -10.606  -9.397  0.00  0.00    -0.346 N 
HETATM   54  H           0      11.818 -10.845  -9.909  0.00  0.00     0.163 HD
HETATM   55  C           0      12.903  -9.300  -9.106  0.00  0.00     0.236 C 
HETATM   56  O           0      13.835  -8.936  -8.394  0.00  0.00    -0.272 OA
BRANCH  55  57
HETATM   57  C           0      11.927  -8.272  -9.695  0.00  0.00     0.225 C 
BRANCH  57  58
HETATM   58  N           0      11.444  -8.602 -11.034  0.00  0.00    -0.351 N 
HETATM   59  H           0      11.872  -9.390 -11.498  0.00  0.00     0.163 HD
HETATM   60  C           0      10.285  -8.058 -11.476  0.00  0.00     0.248 C 
HETATM   61  O           0       9.671  -7.218 -10.809  0.00  0.00    -0.271 OA
BRANCH  60  62
HETATM   62  C           0       9.713  -8.450 -12.843  0.00  0.00     0.275 C 
BRANCH  62  63
HETATM   63  N           0      10.727  -8.333 -13.969  0.00  0.00    -0.066 N 
HETATM   64  H           0      10.366  -8.686 -14.862  0.00  0.00     0.275 HD
HETATM   65  H           0      11.070  -7.380 -14.120  0.00  0.00     0.275 HD
HETATM   66  H           0      11.552  -8.898 -13.743  0.00  0.00     0.275 HD
ENDBRANCH  62  63
BRANCH  62  67
HETATM   67  C           0       9.068  -9.844 -12.897  0.00  0.00     0.053 C 
BRANCH  67  68
HETATM   68  C           0       9.958 -10.931 -13.510  0.00  0.00     0.115 C 
BRANCH  68  69
HETATM   69  C           0      10.720 -11.842 -12.527  0.00  0.00     0.172 C 
HETATM   70  O           0      11.845 -11.470 -12.101  0.00  0.00    -0.648 OA
HETATM   71  O           0      10.148 -12.940 -12.229  0.00  0.00    -0.648 OA
ENDBRANCH  68  69
ENDBRANCH  67  68
ENDBRANCH  62  67
ENDBRANCH  60  62
ENDBRANCH  57  58
ENDBRANCH  55  57
ENDBRANCH  52  53
BRANCH  52  72
HETATM   72  C           0      12.621 -12.933  -8.639  0.00  0.00     0.038 C 
BRANCH  72  73
HETATM   73  C           0      13.357 -14.268  -8.414  0.00  0.00    -0.020 C 
HETATM   74  C           0      14.088 -14.317  -7.064  0.00  0.00     0.009 C 
HETATM   75  C           0      12.352 -15.424  -8.534  0.00  0.00     0.009 C 
ENDBRANCH  72  73
ENDBRANCH  52  72
ENDBRANCH  50  52
ENDBRANCH  41  48
ENDBRANCH   1  41
TORSDOF 28
ENDMDL
MODEL 6
REMARK VINA RESULT:      -5.3     27.066     30.421
REMARK  28 active torsions:
REMARK  status: ('A' for Active; 'I' for Inactive)
REMARK       I    between atoms: C_1  and  N_3 
REMARK    1  A    between atoms: C_1  and  C_41 
REMARK    2  A    between atoms: N_3  and  C_5 
REMARK    3  A    between atoms: C_5  and  C_6 
REMARK    4  A    between atoms: C_5  and  C_18 
REMARK       I    between atoms: C_18  and  N_19 
REMARK    5  A    between atoms: C_20  and  C_25 
REMARK       I    between atoms: C_25  and  N_26 
REMARK    6  A    between atoms: N_26  and  C_29 
REMARK    7  A    between atoms: C_29  and  C_30 
REMARK    8  A    between atoms: C_29  and  C_38 
REMARK       I    between atoms: C_30  and  N_31 
REMARK    9  A    between atoms: N_31  and  C_34 
REMARK   10  A    between atoms: C_34  and  C_35 
REMARK   11  A    between atoms: C_38  and  O_39 
REMARK   12  A    between atoms: C_6  and  C_7 
REMARK   13  A    between atoms: C_7  and  C_8 
REMARK   14  A    between atoms: C_8  and  N_9 
REMARK       I    between atoms: N_9  and  C_10 
REMARK       I    between atoms: C_10  and  N_12 
REMARK   15  A    between atoms: C_41  and  C_42 
REMARK   16  A    between atoms: C_41  and  N_48 
REMARK       I    between atoms: N_48  and  C_50 
REMARK   17  A    between atoms: C_50  and  C_52 
REMARK   18  A    between atoms: C_52  and  N_53 
REMARK   19  A    between atoms: C_52  and  C_72 
REMARK       I    between atoms: N_53  and  C_55 
REMARK   20  A    between atoms: C_55  and  C_57 
REMARK   21  A    between atoms: C_57  and  N_58 
REMARK       I    between atoms: N_58  and  C_60 
REMARK   22  A    between atoms: C_60  and  C_62 
REMARK   23  A    between atoms: C_62  and  N_63 
REMARK   24  A    between atoms: C_62  and  C_67 
REMARK   25  A    between atoms: C_67  and  C_68 
REMARK   26  A    between atoms: C_68  and  C_69 
REMARK   27  A    between atoms: C_72  and  C_73 
REMARK   28  A    between atoms: C_42  and  C_43 
REMARK       I    between atoms: C_43  and  N_44 
ROOT
HETATM    1  C           0      -8.199  -5.669   5.714  0.00  0.00     0.241 C 
HETATM    2  O           0      -8.646  -6.789   5.443  0.00  0.00    -0.271 OA
HETATM    3  N           0      -8.843  -4.536   5.347  0.00  0.00    -0.346 N 
HETATM    4  H           0      -8.427  -3.637   5.556  0.00  0.00     0.163 HD
ENDROOT
BRANCH   3   5
HETATM    5  C           0     -10.191  -4.604   4.785  0.00  0.00     0.176 C 
BRANCH   5   6
HETATM    6  C           0     -11.260  -4.242   5.828  0.00  0.00     0.036 C 
BRANCH   6   7
HETATM    7  C           0     -10.616  -3.863   7.166  0.00  0.00     0.023 C 
BRANCH   7   8
HETATM    8  C           0     -10.684  -2.371   7.494  0.00  0.00     0.138 C 
BRANCH   8   9
HETATM    9  N           0     -10.733  -1.646   6.227  0.00  0.00    -0.227 N 
HETATM   10  C           0      -9.724  -1.020   5.628  0.00  0.00     0.665 C 
HETATM   11  N           0      -8.510  -0.941   6.189  0.00  0.00    -0.235 N 
HETATM   12  N           0      -9.959  -0.473   4.421  0.00  0.00    -0.235 N 
HETATM   13  H           0      -7.723  -0.592   5.664  0.00  0.00     0.174 HD
HETATM   14  H           0      -8.310  -1.417   7.055  0.00  0.00     0.174 HD
HETATM   15  H           0      -9.320   0.208   4.039  0.00  0.00     0.174 HD
HETATM   16  H           0     -10.937  -0.459   4.122  0.00  0.00     0.174 HD
HETATM   17  H           0     -11.632  -1.571   5.721  0.00  0.00     0.177 HD
ENDBRANCH   8   9
ENDBRANCH   7   8
ENDBRANCH   6   7
ENDBRANCH   5   6
BRANCH   5  18
HETATM   18  C           0     -10.385  -3.870   3.440  0.00  0.00     0.243 C 
HETATM   19  N           0     -11.612  -3.814   2.855  0.00  0.00    -0.337 N 
HETATM   20  C           0     -11.794  -3.004   1.638  0.00  0.00     0.179 C 
HETATM   21  C           0     -12.713  -4.791   2.994  0.00  0.00     0.127 C 
HETATM   22  C           0     -12.951  -3.700   0.867  0.00  0.00     0.037 C 
HETATM   23  C           0     -13.084  -5.078   1.535  0.00  0.00     0.022 C 
HETATM   24  O           0      -9.405  -3.288   2.966  0.00  0.00    -0.271 OA
BRANCH  20  25
HETATM   25  C           0     -12.130  -1.524   1.889  0.00  0.00     0.241 C 
HETATM   26  N           0     -11.852  -0.634   0.903  0.00  0.00    -0.344 N 
HETATM   27  H           0     -11.446  -0.959   0.029  0.00  0.00     0.163 HD
HETATM   28  O           0     -12.620  -1.201   2.974  0.00  0.00    -0.271 OA
BRANCH  26  29
HETATM   29  C           0     -11.959   0.803   1.112  0.00  0.00     0.200 C 
BRANCH  29  30
HETATM   30  C           0     -13.203   1.479   0.503  0.00  0.00     0.242 C 
HETATM   31  N           0     -14.084   0.707  -0.147  0.00  0.00    -0.354 N 
HETATM   32  H           0     -13.993  -0.304  -0.210  0.00  0.00     0.162 HD
HETATM   33  O           0     -13.337   2.706   0.633  0.00  0.00    -0.271 OA
BRANCH  31  34
HETATM   34  C           0     -15.318   1.210  -0.722  0.00  0.00     0.203 C 
BRANCH  34  35
HETATM   35  C           0     -16.416   0.108  -0.700  0.00  0.00     0.307 C 
HETATM   36  O           0     -16.591  -0.482   0.400  0.00  0.00    -0.186 OA
HETATM   37  O           0     -17.012  -0.072  -1.788  0.00  0.00    -0.186 OA
ENDBRANCH  34  35
ENDBRANCH  31  34
ENDBRANCH  29  30
BRANCH  29  38
HETATM   38  C           0     -10.689   1.530   0.621  0.00  0.00     0.199 C 
BRANCH  38  39
HETATM   39  O           0     -10.783   1.947  -0.728  0.00  0.00    -0.398 OA
HETATM   40  H           0     -10.285   1.336  -1.298  0.00  0.00     0.209 HD
ENDBRANCH  38  39
ENDBRANCH  29  38
ENDBRANCH  26  29
ENDBRANCH  20  25
ENDBRANCH   5  18
ENDBRANCH   3   5
BRANCH   1  41
HETATM   41  C           0      -6.899  -5.503   6.530  0.00  0.00     0.185 C 
BRANCH  41  42
HETATM   42  C           0      -6.056  -6.791   6.564  0.00  0.00     0.137 C 
BRANCH  42  43
HETATM   43  C           0      -6.393  -7.749   7.707  0.00  0.00     0.217 C 
HETATM   44  N           0      -7.124  -8.821   7.331  0.00  0.00    -0.370 N 
HETATM   45  H           0      -7.463  -9.430   8.062  0.00  0.00     0.159 HD
HETATM   46  H           0      -7.481  -8.941   6.375  0.00  0.00     0.159 HD
HETATM   47  O           0      -6.050  -7.525   8.870  0.00  0.00    -0.274 OA
ENDBRANCH  42  43
ENDBRANCH  41  42
BRANCH  41  48
HETATM   48  N           0      -7.163  -5.120   7.912  0.00  0.00    -0.346 N 
HETATM   49  H           0      -7.410  -5.847   8.570  0.00  0.00     0.163 HD
HETATM   50  C           0      -7.191  -3.842   8.343  0.00  0.00     0.241 C 
HETATM   51  O           0      -7.018  -2.871   7.597  0.00  0.00    -0.271 OA
BRANCH  50  52
HETATM   52  C           0      -7.423  -3.630   9.851  0.00  0.00     0.177 C 
BRANCH  52  53
HETATM   53  N           0      -7.175  -2.252  10.263  0.00  0.00    -0.346 N 
HETATM   54  H           0      -7.570  -1.499   9.714  0.00  0.00     0.163 HD
HETATM   55  C           0      -6.539  -1.954  11.428  0.00  0.00     0.236 C 
HETATM   56  O           0      -6.133  -2.812  12.208  0.00  0.00    -0.272 OA
BRANCH  55  57
HETATM   57  C           0      -6.366  -0.464  11.752  0.00  0.00     0.225 C 
BRANCH  57  58
HETATM   58  N           0      -5.623   0.288  10.743  0.00  0.00    -0.351 N 
HETATM   59  H           0      -6.150   0.918  10.155  0.00  0.00     0.163 HD
HETATM   60  C           0      -4.272   0.346  10.816  0.00  0.00     0.248 C 
HETATM   61  O           0      -3.644  -0.297  11.665  0.00  0.00    -0.271 OA
BRANCH  60  62
HETATM   62  C           0      -3.473   1.193   9.819  0.00  0.00     0.275 C 
BRANCH  62  63
HETATM   63  N           0      -2.469   0.382   9.018  0.00  0.00    -0.066 N 
HETATM   64  H           0      -2.862  -0.501   8.673  0.00  0.00     0.275 HD
HETATM   65  H           0      -2.071   0.886   8.221  0.00  0.00     0.275 HD
HETATM   66  H           0      -1.676   0.133   9.619  0.00  0.00     0.275 HD
ENDBRANCH  62  63
BRANCH  62  67
HETATM   67  C           0      -4.329   2.024   8.849  0.00  0.00     0.053 C 
BRANCH  67  68
HETATM   68  C           0      -4.429   1.440   7.434  0.00  0.00     0.115 C 
BRANCH  68  69
HETATM   69  C           0      -5.798   0.868   7.015  0.00  0.00     0.172 C 
HETATM   70  O           0      -6.114   0.879   5.796  0.00  0.00    -0.648 OA
HETATM   71  O           0      -6.533   0.434   7.960  0.00  0.00    -0.648 OA
ENDBRANCH  68  69
ENDBRANCH  67  68
ENDBRANCH  62  67
ENDBRANCH  60  62
ENDBRANCH  57  58
ENDBRANCH  55  57
ENDBRANCH  52  53
BRANCH  52  72
HETATM   72  C           0      -8.856  -4.031  10.270  0.00  0.00     0.038 C 
BRANCH  72  73
HETATM   73  C           0      -9.009  -5.337  11.074  0.00  0.00    -0.020 C 
HETATM   74  C           0      -8.852  -5.119  12.586  0.00  0.00     0.009 C 
HETATM   75  C           0     -10.370  -5.972  10.751  0.00  0.00     0.009 C 
ENDBRANCH  72  73
ENDBRANCH  52  72
ENDBRANCH  50  52
ENDBRANCH  41  48
ENDBRANCH   1  41
TORSDOF 28
ENDMDL
MODEL 7
REMARK VINA RESULT:      -5.2     19.543     23.736
REMARK  28 active torsions:
REMARK  status: ('A' for Active; 'I' for Inactive)
REMARK       I    between atoms: C_1  and  N_3 
REMARK    1  A    between atoms: C_1  and  C_41 
REMARK    2  A    between atoms: N_3  and  C_5 
REMARK    3  A    between atoms: C_5  and  C_6 
REMARK    4  A    between atoms: C_5  and  C_18 
REMARK       I    between atoms: C_18  and  N_19 
REMARK    5  A    between atoms: C_20  and  C_25 
REMARK       I    between atoms: C_25  and  N_26 
REMARK    6  A    between atoms: N_26  and  C_29 
REMARK    7  A    between atoms: C_29  and  C_30 
REMARK    8  A    between atoms: C_29  and  C_38 
REMARK       I    between atoms: C_30  and  N_31 
REMARK    9  A    between atoms: N_31  and  C_34 
REMARK   10  A    between atoms: C_34  and  C_35 
REMARK   11  A    between atoms: C_38  and  O_39 
REMARK   12  A    between atoms: C_6  and  C_7 
REMARK   13  A    between atoms: C_7  and  C_8 
REMARK   14  A    between atoms: C_8  and  N_9 
REMARK       I    between atoms: N_9  and  C_10 
REMARK       I    between atoms: C_10  and  N_12 
REMARK   15  A    between atoms: C_41  and  C_42 
REMARK   16  A    between atoms: C_41  and  N_48 
REMARK       I    between atoms: N_48  and  C_50 
REMARK   17  A    between atoms: C_50  and  C_52 
REMARK   18  A    between atoms: C_52  and  N_53 
REMARK   19  A    between atoms: C_52  and  C_72 
REMARK       I    between atoms: N_53  and  C_55 
REMARK   20  A    between atoms: C_55  and  C_57 
REMARK   21  A    between atoms: C_57  and  N_58 
REMARK       I    between atoms: N_58  and  C_60 
REMARK   22  A    between atoms: C_60  and  C_62 
REMARK   23  A    between atoms: C_62  and  N_63 
REMARK   24  A    between atoms: C_62  and  C_67 
REMARK   25  A    between atoms: C_67  and  C_68 
REMARK   26  A    between atoms: C_68  and  C_69 
REMARK   27  A    between atoms: C_72  and  C_73 
REMARK   28  A    between atoms: C_42  and  C_43 
REMARK       I    between atoms: C_43  and  N_44 
ROOT
HETATM    1  C           0     -10.617 -13.509  -1.844  0.00  0.00     0.241 C 
HETATM    2  O           0     -11.267 -12.840  -2.655  0.00  0.00    -0.271 OA
HETATM    3  N           0      -9.417 -14.047  -2.164  0.00  0.00    -0.346 N 
HETATM    4  H           0      -8.931 -14.619  -1.483  0.00  0.00     0.163 HD
ENDROOT
BRANCH   3   5
HETATM    5  C           0      -8.762 -13.692  -3.421  0.00  0.00     0.176 C 
BRANCH   5   6
HETATM    6  C           0      -8.074 -12.320  -3.336  0.00  0.00     0.036 C 
BRANCH   6   7
HETATM    7  C           0      -8.798 -11.287  -4.208  0.00  0.00     0.023 C 
BRANCH   7   8
HETATM    8  C           0      -8.327 -11.255  -5.661  0.00  0.00     0.138 C 
BRANCH   8   9
HETATM    9  N           0      -7.292 -12.276  -5.809  0.00  0.00    -0.227 N 
HETATM   10  C           0      -5.976 -12.091  -5.753  0.00  0.00     0.665 C 
HETATM   11  N           0      -5.442 -10.871  -5.603  0.00  0.00    -0.235 N 
HETATM   12  N           0      -5.189 -13.179  -5.839  0.00  0.00    -0.235 N 
HETATM   13  H           0      -4.456 -10.761  -5.419  0.00  0.00     0.174 HD
HETATM   14  H           0      -6.028 -10.065  -5.459  0.00  0.00     0.174 HD
HETATM   15  H           0      -4.207 -13.080  -6.045  0.00  0.00     0.174 HD
HETATM   16  H           0      -5.664 -14.051  -6.084  0.00  0.00     0.174 HD
HETATM   17  H           0      -7.570 -13.253  -6.000  0.00  0.00     0.177 HD
ENDBRANCH   8   9
ENDBRANCH   7   8
ENDBRANCH   6   7
ENDBRANCH   5   6
BRANCH   5  18
HETATM   18  C           0      -7.855 -14.786  -4.027  0.00  0.00     0.243 C 
HETATM   19  N           0      -8.318 -15.597  -5.016  0.00  0.00    -0.337 N 
HETATM   20  C           0      -7.396 -16.548  -5.661  0.00  0.00     0.179 C 
HETATM   21  C           0      -9.722 -15.991  -5.264  0.00  0.00     0.127 C 
HETATM   22  C           0      -8.299 -17.725  -6.125  0.00  0.00     0.037 C 
HETATM   23  C           0      -9.620 -17.517  -5.368  0.00  0.00     0.022 C 
HETATM   24  O           0      -6.689 -14.841  -3.625  0.00  0.00    -0.271 OA
BRANCH  20  25
HETATM   25  C           0      -6.604 -15.977  -6.850  0.00  0.00     0.241 C 
HETATM   26  N           0      -5.396 -16.528  -7.131  0.00  0.00    -0.344 N 
HETATM   27  H           0      -5.049 -17.300  -6.567  0.00  0.00     0.163 HD
HETATM   28  O           0      -7.084 -15.038  -7.490  0.00  0.00    -0.271 OA
BRANCH  26  29
HETATM   29  C           0      -4.493 -15.942  -8.111  0.00  0.00     0.200 C 
BRANCH  29  30
HETATM   30  C           0      -4.541 -16.560  -9.522  0.00  0.00     0.242 C 
HETATM   31  N           0      -3.515 -16.319 -10.350  0.00  0.00    -0.354 N 
HETATM   32  H           0      -2.691 -15.792 -10.071  0.00  0.00     0.162 HD
HETATM   33  O           0      -5.524 -17.249  -9.836  0.00  0.00    -0.271 OA
BRANCH  31  34
HETATM   34  C           0      -3.415 -16.880 -11.685  0.00  0.00     0.203 C 
BRANCH  34  35
HETATM   35  C           0      -2.654 -18.237 -11.646  0.00  0.00     0.307 C 
HETATM   36  O           0      -3.368 -19.275 -11.614  0.00  0.00    -0.186 OA
HETATM   37  O           0      -1.403 -18.146 -11.653  0.00  0.00    -0.186 OA
ENDBRANCH  34  35
ENDBRANCH  31  34
ENDBRANCH  29  30
BRANCH  29  38
HETATM   38  C           0      -3.037 -15.950  -7.598  0.00  0.00     0.199 C 
BRANCH  38  39
HETATM   39  O           0      -2.513 -17.257  -7.454  0.00  0.00    -0.398 OA
HETATM   40  H           0      -2.157 -17.565  -8.304  0.00  0.00     0.209 HD
ENDBRANCH  38  39
ENDBRANCH  29  38
ENDBRANCH  26  29
ENDBRANCH  20  25
ENDBRANCH   5  18
ENDBRANCH   3   5
BRANCH   1  41
HETATM   41  C           0     -11.121 -13.726  -0.402  0.00  0.00     0.185 C 
BRANCH  41  42
HETATM   42  C           0     -12.131 -14.884  -0.297  0.00  0.00     0.137 C 
BRANCH  42  43
HETATM   43  C           0     -11.508 -16.260  -0.060  0.00  0.00     0.217 C 
HETATM   44  N           0     -11.182 -16.920  -1.192  0.00  0.00    -0.370 N 
HETATM   45  H           0     -10.864 -17.875  -1.097  0.00  0.00     0.159 HD
HETATM   46  H           0     -11.400 -16.558  -2.129  0.00  0.00     0.159 HD
HETATM   47  O           0     -11.360 -16.723   1.073  0.00  0.00    -0.274 OA
ENDBRANCH  42  43
ENDBRANCH  41  42
BRANCH  41  48
HETATM   48  N           0     -11.768 -12.537   0.140  0.00  0.00    -0.346 N 
HETATM   49  H           0     -12.761 -12.420  -0.015  0.00  0.00     0.163 HD
HETATM   50  C           0     -11.103 -11.536   0.752  0.00  0.00     0.241 C 
HETATM   51  O           0      -9.874 -11.522   0.891  0.00  0.00    -0.271 OA
BRANCH  50  52
HETATM   52  C           0     -11.959 -10.386   1.318  0.00  0.00     0.177 C 
BRANCH  52  53
HETATM   53  N           0     -11.795  -9.147   0.564  0.00  0.00    -0.346 N 
HETATM   54  H           0     -12.243  -9.063  -0.339  0.00  0.00     0.163 HD
HETATM   55  C           0     -11.166  -8.063   1.092  0.00  0.00     0.236 C 
HETATM   56  O           0     -10.697  -8.047   2.228  0.00  0.00    -0.272 OA
BRANCH  55  57
HETATM   57  C           0     -11.085  -6.816   0.200  0.00  0.00     0.225 C 
BRANCH  57  58
HETATM   58  N           0     -10.250  -6.982  -0.988  0.00  0.00    -0.351 N 
HETATM   59  H           0     -10.376  -7.827  -1.527  0.00  0.00     0.163 HD
HETATM   60  C           0      -9.576  -5.916  -1.481  0.00  0.00     0.248 C 
HETATM   61  O           0      -9.577  -4.826  -0.899  0.00  0.00    -0.271 OA
BRANCH  60  62
HETATM   62  C           0      -8.758  -6.041  -2.772  0.00  0.00     0.275 C 
BRANCH  62  63
HETATM   63  N           0      -7.447  -5.275  -2.723  0.00  0.00    -0.066 N 
HETATM   64  H           0      -6.674  -5.790  -3.159  0.00  0.00     0.275 HD
HETATM   65  H           0      -7.494  -4.347  -3.155  0.00  0.00     0.275 HD
HETATM   66  H           0      -7.180  -5.118  -1.745  0.00  0.00     0.275 HD
ENDBRANCH  62  63
BRANCH  62  67
HETATM   67  C           0      -8.474  -7.485  -3.218  0.00  0.00     0.053 C 
BRANCH  67  68
HETATM   68  C           0      -8.244  -7.649  -4.725  0.00  0.00     0.115 C 
BRANCH  68  69
HETATM   69  C           0      -6.795  -7.914  -5.181  0.00  0.00     0.172 C 
HETATM   70  O           0      -6.542  -7.945  -6.414  0.00  0.00    -0.648 OA
HETATM   71  O           0      -5.946  -8.107  -4.252  0.00  0.00    -0.648 OA
ENDBRANCH  68  69
ENDBRANCH  67  68
ENDBRANCH  62  67
ENDBRANCH  60  62
ENDBRANCH  57  58
ENDBRANCH  55  57
ENDBRANCH  52  53
BRANCH  52  72
HETATM   72  C           0     -13.459 -10.757   1.358  0.00  0.00     0.038 C 
BRANCH  72  73
HETATM   73  C           0     -14.387 -10.023   0.371  0.00  0.00    -0.020 C 
HETATM   74  C           0     -15.031 -10.972  -0.650  0.00  0.00     0.009 C 
HETATM   75  C           0     -15.460  -9.258   1.161  0.00  0.00     0.009 C 
ENDBRANCH  72  73
ENDBRANCH  52  72
ENDBRANCH  50  52
ENDBRANCH  41  48
ENDBRANCH   1  41
TORSDOF 28
ENDMDL
MODEL 8
REMARK VINA RESULT:      -5.1      4.182      7.373
REMARK  28 active torsions:
REMARK  status: ('A' for Active; 'I' for Inactive)
REMARK       I    between atoms: C_1  and  N_3 
REMARK    1  A    between atoms: C_1  and  C_41 
REMARK    2  A    between atoms: N_3  and  C_5 
REMARK    3  A    between atoms: C_5  and  C_6 
REMARK    4  A    between atoms: C_5  and  C_18 
REMARK       I    between atoms: C_18  and  N_19 
REMARK    5  A    between atoms: C_20  and  C_25 
REMARK       I    between atoms: C_25  and  N_26 
REMARK    6  A    between atoms: N_26  and  C_29 
REMARK    7  A    between atoms: C_29  and  C_30 
REMARK    8  A    between atoms: C_29  and  C_38 
REMARK       I    between atoms: C_30  and  N_31 
REMARK    9  A    between atoms: N_31  and  C_34 
REMARK   10  A    between atoms: C_34  and  C_35 
REMARK   11  A    between atoms: C_38  and  O_39 
REMARK   12  A    between atoms: C_6  and  C_7 
REMARK   13  A    between atoms: C_7  and  C_8 
REMARK   14  A    between atoms: C_8  and  N_9 
REMARK       I    between atoms: N_9  and  C_10 
REMARK       I    between atoms: C_10  and  N_12 
REMARK   15  A    between atoms: C_41  and  C_42 
REMARK   16  A    between atoms: C_41  and  N_48 
REMARK       I    between atoms: N_48  and  C_50 
REMARK   17  A    between atoms: C_50  and  C_52 
REMARK   18  A    between atoms: C_52  and  N_53 
REMARK   19  A    between atoms: C_52  and  C_72 
REMARK       I    between atoms: N_53  and  C_55 
REMARK   20  A    between atoms: C_55  and  C_57 
REMARK   21  A    between atoms: C_57  and  N_58 
REMARK       I    between atoms: N_58  and  C_60 
REMARK   22  A    between atoms: C_60  and  C_62 
REMARK   23  A    between atoms: C_62  and  N_63 
REMARK   24  A    between atoms: C_62  and  C_67 
REMARK   25  A    between atoms: C_67  and  C_68 
REMARK   26  A    between atoms: C_68  and  C_69 
REMARK   27  A    between atoms: C_72  and  C_73 
REMARK   28  A    between atoms: C_42  and  C_43 
REMARK       I    between atoms: C_43  and  N_44 
ROOT
HETATM    1  C           0      16.356 -10.026 -12.342  0.00  0.00     0.241 C 
HETATM    2  O           0      16.312  -9.311 -13.350  0.00  0.00    -0.271 OA
HETATM    3  N           0      15.333 -10.846 -12.004  0.00  0.00    -0.346 N 
HETATM    4  H           0      15.393 -11.390 -11.152  0.00  0.00     0.163 HD
ENDROOT
BRANCH   3   5
HETATM    5  C           0      14.220 -11.054 -12.928  0.00  0.00     0.176 C 
BRANCH   5   6
HETATM    6  C           0      14.488 -12.229 -13.884  0.00  0.00     0.036 C 
BRANCH   6   7
HETATM    7  C           0      14.573 -11.746 -15.336  0.00  0.00     0.023 C 
BRANCH   7   8
HETATM    8  C           0      13.456 -10.785 -15.744  0.00  0.00     0.138 C 
BRANCH   8   9
HETATM    9  N           0      12.207 -11.543 -15.752  0.00  0.00    -0.227 N 
HETATM   10  C           0      11.610 -12.083 -16.810  0.00  0.00     0.665 C 
HETATM   11  N           0      12.094 -11.925 -18.050  0.00  0.00    -0.235 N 
HETATM   12  N           0      10.498 -12.810 -16.595  0.00  0.00    -0.235 N 
HETATM   13  H           0      11.715 -12.455 -18.821  0.00  0.00     0.174 HD
HETATM   14  H           0      12.967 -11.448 -18.206  0.00  0.00     0.174 HD
HETATM   15  H           0       9.880 -13.032 -17.360  0.00  0.00     0.174 HD
HETATM   16  H           0      10.120 -12.773 -15.645  0.00  0.00     0.174 HD
HETATM   17  H           0      11.692 -11.679 -14.866  0.00  0.00     0.177 HD
ENDBRANCH   8   9
ENDBRANCH   7   8
ENDBRANCH   6   7
ENDBRANCH   5   6
BRANCH   5  18
HETATM   18  C           0      12.821 -11.112 -12.276  0.00  0.00     0.243 C 
HETATM   19  N           0      12.215  -9.974 -11.841  0.00  0.00    -0.337 N 
HETATM   20  C           0      10.832 -10.041 -11.337  0.00  0.00     0.179 C 
HETATM   21  C           0      12.872  -8.731 -11.383  0.00  0.00     0.127 C 
HETATM   22  C           0      10.727  -8.879 -10.310  0.00  0.00     0.037 C 
HETATM   23  C           0      12.185  -8.475 -10.037  0.00  0.00     0.022 C 
HETATM   24  O           0      12.261 -12.211 -12.232  0.00  0.00    -0.271 OA
BRANCH  20  25
HETATM   25  C           0       9.742  -9.905 -12.415  0.00  0.00     0.241 C 
HETATM   26  N           0      10.093  -9.361 -13.608  0.00  0.00    -0.344 N 
HETATM   27  H           0      11.054  -9.069 -13.766  0.00  0.00     0.163 HD
HETATM   28  O           0       8.597 -10.279 -12.152  0.00  0.00    -0.271 OA
BRANCH  26  29
HETATM   29  C           0       9.102  -9.021 -14.618  0.00  0.00     0.200 C 
BRANCH  29  30
HETATM   30  C           0       9.563  -9.156 -16.083  0.00  0.00     0.242 C 
HETATM   31  N           0       8.737  -9.759 -16.949  0.00  0.00    -0.354 N 
HETATM   32  H           0       7.807 -10.081 -16.694  0.00  0.00     0.162 HD
HETATM   33  O           0      10.677  -8.710 -16.400  0.00  0.00    -0.271 OA
BRANCH  31  34
HETATM   34  C           0       9.029  -9.906 -18.363  0.00  0.00     0.203 C 
BRANCH  34  35
HETATM   35  C           0       8.301 -11.154 -18.940  0.00  0.00     0.307 C 
HETATM   36  O           0       9.015 -12.175 -19.134  0.00  0.00    -0.186 OA
HETATM   37  O           0       7.073 -11.006 -19.148  0.00  0.00    -0.186 OA
ENDBRANCH  34  35
ENDBRANCH  31  34
ENDBRANCH  29  30
BRANCH  29  38
HETATM   38  C           0       8.540  -7.602 -14.388  0.00  0.00     0.199 C 
BRANCH  38  39
HETATM   39  O           0       7.450  -7.584 -13.485  0.00  0.00    -0.398 OA
HETATM   40  H           0       6.973  -8.431 -13.527  0.00  0.00     0.209 HD
ENDBRANCH  38  39
ENDBRANCH  29  38
ENDBRANCH  26  29
ENDBRANCH  20  25
ENDBRANCH   5  18
ENDBRANCH   3   5
BRANCH   1  41
HETATM   41  C           0      17.607 -10.056 -11.439  0.00  0.00     0.185 C 
BRANCH  41  42
HETATM   42  C           0      18.628 -11.121 -11.881  0.00  0.00     0.137 C 
BRANCH  42  43
HETATM   43  C           0      20.091 -10.738 -11.661  0.00  0.00     0.217 C 
HETATM   44  N           0      20.314  -9.407 -11.626  0.00  0.00    -0.370 N 
HETATM   45  H           0      21.275  -9.098 -11.588  0.00  0.00     0.159 HD
HETATM   46  H           0      19.574  -8.716 -11.804  0.00  0.00     0.159 HD
HETATM   47  O           0      20.981 -11.587 -11.564  0.00  0.00    -0.274 OA
ENDBRANCH  42  43
ENDBRANCH  41  42
BRANCH  41  48
HETATM   48  N           0      17.272 -10.328 -10.046  0.00  0.00    -0.346 N 
HETATM   49  H           0      16.565 -11.025  -9.851  0.00  0.00     0.163 HD
HETATM   50  C           0      17.782  -9.638  -9.005  0.00  0.00     0.241 C 
HETATM   51  O           0      18.566  -8.690  -9.138  0.00  0.00    -0.271 OA
BRANCH  50  52
HETATM   52  C           0      17.364 -10.106  -7.598  0.00  0.00     0.177 C 
BRANCH  52  53
HETATM   53  N           0      16.032 -10.704  -7.584  0.00  0.00    -0.346 N 
HETATM   54  H           0      15.949 -11.707  -7.480  0.00  0.00     0.163 HD
HETATM   55  C           0      14.904  -9.945  -7.579  0.00  0.00     0.236 C 
HETATM   56  O           0      14.922  -8.717  -7.586  0.00  0.00    -0.272 OA
BRANCH  55  57
HETATM   57  C           0      13.569 -10.701  -7.538  0.00  0.00     0.225 C 
BRANCH  57  58
HETATM   58  N           0      13.646 -12.082  -8.012  0.00  0.00    -0.351 N 
HETATM   59  H           0      14.473 -12.608  -7.767  0.00  0.00     0.163 HD
HETATM   60  C           0      12.532 -12.687  -8.486  0.00  0.00     0.248 C 
HETATM   61  O           0      11.468 -12.071  -8.613  0.00  0.00    -0.271 OA
BRANCH  60  62
HETATM   62  C           0      12.566 -14.159  -8.913  0.00  0.00     0.275 C 
BRANCH  62  63
HETATM   63  N           0      11.883 -14.408 -10.247  0.00  0.00    -0.066 N 
HETATM   64  H           0      11.389 -13.580 -10.597  0.00  0.00     0.275 HD
HETATM   65  H           0      12.518 -14.733 -10.983  0.00  0.00     0.275 HD
HETATM   66  H           0      11.178 -15.144 -10.137  0.00  0.00     0.275 HD
ENDBRANCH  62  63
BRANCH  62  67
HETATM   67  C           0      13.968 -14.788  -8.947  0.00  0.00     0.053 C 
BRANCH  67  68
HETATM   68  C           0      14.630 -14.787 -10.330  0.00  0.00     0.115 C 
BRANCH  68  69
HETATM   69  C           0      15.744 -13.749 -10.567  0.00  0.00     0.172 C 
HETATM   70  O           0      16.477 -13.864 -11.584  0.00  0.00    -0.648 OA
HETATM   71  O           0      15.856 -12.840  -9.681  0.00  0.00    -0.648 OA
ENDBRANCH  68  69
ENDBRANCH  67  68
ENDBRANCH  62  67
ENDBRANCH  60  62
ENDBRANCH  57  58
ENDBRANCH  55  57
ENDBRANCH  52  53
BRANCH  52  72
HETATM   72  C           0      18.375 -11.115  -7.007  0.00  0.00     0.038 C 
BRANCH  72  73
HETATM   73  C           0      19.055 -12.083  -7.995  0.00  0.00    -0.020 C 
HETATM   74  C           0      20.583 -11.931  -8.011  0.00  0.00     0.009 C 
HETATM   75  C           0      18.652 -13.524  -7.646  0.00  0.00     0.009 C 
ENDBRANCH  72  73
ENDBRANCH  52  72
ENDBRANCH  50  52
ENDBRANCH  41  48
ENDBRANCH   1  41
TORSDOF 28
ENDMDL
MODEL 9
REMARK VINA RESULT:      -5.1      3.950      7.705
REMARK  28 active torsions:
REMARK  status: ('A' for Active; 'I' for Inactive)
REMARK       I    between atoms: C_1  and  N_3 
REMARK    1  A    between atoms: C_1  and  C_41 
REMARK    2  A    between atoms: N_3  and  C_5 
REMARK    3  A    between atoms: C_5  and  C_6 
REMARK    4  A    between atoms: C_5  and  C_18 
REMARK       I    between atoms: C_18  and  N_19 
REMARK    5  A    between atoms: C_20  and  C_25 
REMARK       I    between atoms: C_25  and  N_26 
REMARK    6  A    between atoms: N_26  and  C_29 
REMARK    7  A    between atoms: C_29  and  C_30 
REMARK    8  A    between atoms: C_29  and  C_38 
REMARK       I    between atoms: C_30  and  N_31 
REMARK    9  A    between atoms: N_31  and  C_34 
REMARK   10  A    between atoms: C_34  and  C_35 
REMARK   11  A    between atoms: C_38  and  O_39 
REMARK   12  A    between atoms: C_6  and  C_7 
REMARK   13  A    between atoms: C_7  and  C_8 
REMARK   14  A    between atoms: C_8  and  N_9 
REMARK       I    between atoms: N_9  and  C_10 
REMARK       I    between atoms: C_10  and  N_12 
REMARK   15  A    between atoms: C_41  and  C_42 
REMARK   16  A    between atoms: C_41  and  N_48 
REMARK       I    between atoms: N_48  and  C_50 
REMARK   17  A    between atoms: C_50  and  C_52 
REMARK   18  A    between atoms: C_52  and  N_53 
REMARK   19  A    between atoms: C_52  and  C_72 
REMARK       I    between atoms: N_53  and  C_55 
REMARK   20  A    between atoms: C_55  and  C_57 
REMARK   21  A    between atoms: C_57  and  N_58 
REMARK       I    between atoms: N_58  and  C_60 
REMARK   22  A    between atoms: C_60  and  C_62 
REMARK   23  A    between atoms: C_62  and  N_63 
REMARK   24  A    between atoms: C_62  and  C_67 
REMARK   25  A    between atoms: C_67  and  C_68 
REMARK   26  A    between atoms: C_68  and  C_69 
REMARK   27  A    between atoms: C_72  and  C_73 
REMARK   28  A    between atoms: C_42  and  C_43 
REMARK       I    between atoms: C_43  and  N_44 
ROOT
HETATM    1  C           0      14.417  -9.798 -10.040  0.00  0.00     0.241 C 
HETATM    2  O           0      15.332  -9.475 -10.806  0.00  0.00    -0.271 OA
HETATM    3  N           0      13.139  -9.924 -10.468  0.00  0.00    -0.346 N 
HETATM    4  H           0      12.412 -10.156  -9.802  0.00  0.00     0.163 HD
ENDROOT
BRANCH   3   5
HETATM    5  C           0      12.831  -9.867 -11.896  0.00  0.00     0.176 C 
BRANCH   5   6
HETATM    6  C           0      12.557 -11.266 -12.473  0.00  0.00     0.036 C 
BRANCH   6   7
HETATM    7  C           0      12.041 -12.217 -11.387  0.00  0.00     0.023 C 
BRANCH   7   8
HETATM    8  C           0      10.518 -12.274 -11.275  0.00  0.00     0.138 C 
BRANCH   8   9
HETATM    9  N           0       9.978 -12.238 -12.632  0.00  0.00    -0.227 N 
HETATM   10  C           0       8.983 -11.476 -13.074  0.00  0.00     0.665 C 
HETATM   11  N           0       8.302 -10.660 -12.257  0.00  0.00    -0.235 N 
HETATM   12  N           0       8.683 -11.539 -14.385  0.00  0.00    -0.235 N 
HETATM   13  H           0       7.650  -9.986 -12.629  0.00  0.00     0.174 HD
HETATM   14  H           0       8.574 -10.552 -11.293  0.00  0.00     0.174 HD
HETATM   15  H           0       7.804 -11.180 -14.723  0.00  0.00     0.174 HD
HETATM   16  H           0       9.155 -12.277 -14.913  0.00  0.00     0.174 HD
HETATM   17  H           0      10.369 -12.873 -13.349  0.00  0.00     0.177 HD
ENDBRANCH   8   9
ENDBRANCH   7   8
ENDBRANCH   6   7
ENDBRANCH   5   6
BRANCH   5  18
HETATM   18  C           0      11.766  -8.825 -12.302  0.00  0.00     0.243 C 
HETATM   19  N           0      11.913  -8.097 -13.442  0.00  0.00    -0.337 N 
HETATM   20  C           0      10.825  -7.201 -13.871  0.00  0.00     0.179 C 
HETATM   21  C           0      13.180  -7.725 -14.107  0.00  0.00     0.127 C 
HETATM   22  C           0      11.533  -6.066 -14.661  0.00  0.00     0.037 C 
HETATM   23  C           0      13.019  -6.213 -14.296  0.00  0.00     0.022 C 
HETATM   24  O           0      10.760  -8.737 -11.592  0.00  0.00    -0.271 OA
BRANCH  20  25
HETATM   25  C           0       9.742  -7.866 -14.739  0.00  0.00     0.241 C 
HETATM   26  N           0       9.915  -7.859 -16.085  0.00  0.00    -0.344 N 
HETATM   27  H           0      10.747  -7.433 -16.485  0.00  0.00     0.163 HD
HETATM   28  O           0       8.758  -8.362 -14.186  0.00  0.00    -0.271 OA
BRANCH  26  29
HETATM   29  C           0       8.867  -8.293 -16.997  0.00  0.00     0.200 C 
BRANCH  29  30
HETATM   30  C           0       9.270  -9.376 -18.016  0.00  0.00     0.242 C 
HETATM   31  N           0       9.908 -10.463 -17.561  0.00  0.00    -0.354 N 
HETATM   32  H           0      10.089 -10.625 -16.573  0.00  0.00     0.162 HD
HETATM   33  O           0       8.995  -9.198 -19.213  0.00  0.00    -0.271 OA
BRANCH  31  34
HETATM   34  C           0      10.298 -11.576 -18.407  0.00  0.00     0.203 C 
BRANCH  34  35
HETATM   35  C           0      10.690 -12.806 -17.539  0.00  0.00     0.307 C 
HETATM   36  O           0      10.515 -12.690 -16.296  0.00  0.00    -0.186 OA
HETATM   37  O           0      11.140 -13.787 -18.178  0.00  0.00    -0.186 OA
ENDBRANCH  34  35
ENDBRANCH  31  34
ENDBRANCH  29  30
BRANCH  29  38
HETATM   38  C           0       8.249  -7.091 -17.743  0.00  0.00     0.199 C 
BRANCH  38  39
HETATM   39  O           0       7.008  -7.402 -18.350  0.00  0.00    -0.398 OA
HETATM   40  H           0       6.538  -6.581 -18.577  0.00  0.00     0.209 HD
ENDBRANCH  38  39
ENDBRANCH  29  38
ENDBRANCH  26  29
ENDBRANCH  20  25
ENDBRANCH   5  18
ENDBRANCH   3   5
BRANCH   1  41
HETATM   41  C           0      14.695 -10.123  -8.557  0.00  0.00     0.185 C 
BRANCH  41  42
HETATM   42  C           0      15.815  -9.249  -7.961  0.00  0.00     0.137 C 
BRANCH  42  43
HETATM   43  C           0      17.158  -9.958  -7.785  0.00  0.00     0.217 C 
HETATM   44  N           0      17.700  -9.816  -6.556  0.00  0.00    -0.370 N 
HETATM   45  H           0      18.634 -10.175  -6.417  0.00  0.00     0.159 HD
HETATM   46  H           0      17.279  -9.223  -5.830  0.00  0.00     0.159 HD
HETATM   47  O           0      17.699 -10.570  -8.709  0.00  0.00    -0.274 OA
ENDBRANCH  42  43
ENDBRANCH  41  42
BRANCH  41  48
HETATM   48  N           0      15.083 -11.516  -8.363  0.00  0.00    -0.346 N 
HETATM   49  H           0      16.013 -11.797  -8.644  0.00  0.00     0.163 HD
HETATM   50  C           0      14.242 -12.472  -7.919  0.00  0.00     0.241 C 
HETATM   51  O           0      13.051 -12.261  -7.658  0.00  0.00    -0.271 OA
BRANCH  50  52
HETATM   52  C           0      14.842 -13.876  -7.715  0.00  0.00     0.177 C 
BRANCH  52  53
HETATM   53  N           0      16.134 -13.835  -7.037  0.00  0.00    -0.346 N 
HETATM   54  H           0      16.159 -13.638  -6.045  0.00  0.00     0.163 HD
HETATM   55  C           0      17.289 -14.175  -7.670  0.00  0.00     0.236 C 
HETATM   56  O           0      17.328 -14.538  -8.843  0.00  0.00    -0.272 OA
BRANCH  55  57
HETATM   57  C           0      18.574 -14.112  -6.834  0.00  0.00     0.225 C 
BRANCH  57  58
HETATM   58  N           0      18.396 -13.532  -5.504  0.00  0.00    -0.351 N 
HETATM   59  H           0      17.596 -13.839  -4.969  0.00  0.00     0.163 HD
HETATM   60  C           0      19.420 -12.858  -4.929  0.00  0.00     0.248 C 
HETATM   61  O           0      20.474 -12.643  -5.539  0.00  0.00    -0.271 OA
BRANCH  60  62
HETATM   62  C           0      19.290 -12.310  -3.503  0.00  0.00     0.275 C 
BRANCH  62  63
HETATM   63  N           0      19.129 -10.799  -3.458  0.00  0.00    -0.066 N 
HETATM   64  H           0      19.776 -10.316  -4.091  0.00  0.00     0.275 HD
HETATM   65  H           0      18.179 -10.478  -3.669  0.00  0.00     0.275 HD
HETATM   66  H           0      19.338 -10.463  -2.513  0.00  0.00     0.275 HD
ENDBRANCH  62  63
BRANCH  62  67
HETATM   67  C           0      18.174 -12.955  -2.665  0.00  0.00     0.053 C 
BRANCH  67  68
HETATM   68  C           0      18.552 -14.301  -2.036  0.00  0.00     0.115 C 
BRANCH  68  69
HETATM   69  C           0      17.801 -15.544  -2.552  0.00  0.00     0.172 C 
HETATM   70  O           0      16.583 -15.438  -2.853  0.00  0.00    -0.648 OA
HETATM   71  O           0      18.482 -16.618  -2.619  0.00  0.00    -0.648 OA
ENDBRANCH  68  69
ENDBRANCH  67  68
ENDBRANCH  62  67
ENDBRANCH  60  62
ENDBRANCH  57  58
ENDBRANCH  55  57
ENDBRANCH  52  53
BRANCH  52  72
HETATM   72  C           0      13.886 -14.797  -6.922  0.00  0.00     0.038 C 
BRANCH  72  73
HETATM   73  C           0      13.855 -16.283  -7.325  0.00  0.00    -0.020 C 
HETATM   74  C           0      14.344 -16.515  -8.761  0.00  0.00     0.009 C 
HETATM   75  C           0      14.692 -17.095  -6.323  0.00  0.00     0.009 C 
ENDBRANCH  72  73
ENDBRANCH  52  72
ENDBRANCH  50  52
ENDBRANCH  41  48
ENDBRANCH   1  41
TORSDOF 28
ENDMDL
