MODEL 1
REMARK VINA RESULT:      -3.9      0.000      0.000
REMARK WARNING: 32 MAX_TORS EXCEEDED!!!
REMARK  38 active torsions:
REMARK  status: ('A' for Active; 'I' for Inactive)
REMARK    1  A    between atoms: N_1  and  CA_2 
REMARK    2  A    between atoms: CA_2  and  CB_5 
REMARK    3  A    between atoms: CA_2  and  C_3 
REMARK       I    between atoms: C_3  and  N_17 
REMARK    4  A    between atoms: CB_5  and  CG_6 
REMARK    5  A    between atoms: CZ_10  and  OH_11 
REMARK    6  A    between atoms: N_17  and  CA_18 
REMARK    7  A    between atoms: CA_18  and  CB_21 
REMARK    8  A    between atoms: CA_18  and  C_19 
REMARK       I    between atoms: C_19  and  N_26 
REMARK    9  A    between atoms: CB_21  and  CG_22 
REMARK   10  A    between atoms: CA_27  and  C_28 
REMARK       I    between atoms: C_28  and  N_33 
REMARK   11  A    between atoms: N_33  and  CA_34 
REMARK   12  A    between atoms: CA_34  and  C_35 
REMARK   13  A    between atoms: CA_34  and  CB_37 
REMARK       I    between atoms: C_35  and  N_43 
REMARK   14  A    between atoms: CB_37  and  CG_38 
REMARK   15  A    between atoms: CG_38  and  CD_39 
REMARK   16  A    between atoms: N_43  and  CA_44 
REMARK   17  A    between atoms: CA_44  and  CB_47 
REMARK   18  A    between atoms: CA_44  and  C_45 
REMARK       I    between atoms: C_45  and  N_57 
REMARK   19  A    between atoms: CB_47  and  CG_48 
REMARK   20  A    between atoms: CZ_52  and  OH_53 
REMARK   21  A    between atoms: N_57  and  CA_58 
REMARK   22  A    between atoms: CA_58  and  CB_61 
REMARK   23  A    between atoms: CA_58  and  C_59 
REMARK       I    between atoms: C_59  and  N_74 
REMARK   24  A    between atoms: CB_61  and  CG_62 
REMARK   25  A    between atoms: CG_62  and  CD_63 
REMARK   26  A    between atoms: CD_63  and  NE_64 
REMARK       I    between atoms: NE_64  and  CZ_65 
REMARK       I    between atoms: CZ_65  and  NH2_66 
REMARK   27  A    between atoms: N_74  and  CA_75 
REMARK   28  A    between atoms: CA_75  and  CB_78 
REMARK   29  A    between atoms: CA_75  and  C_76 
REMARK       I    between atoms: C_76  and  N_85 
REMARK   30  A    between atoms: CB_78  and  CG_79 
REMARK       I    between atoms: CG_79  and  ND2_80 
REMARK   31  A    between atoms: N_85  and  CA_86 
REMARK   32  A    between atoms: CA_86  and  CB_89 
REMARK   33  A    between atoms: CA_86  and  C_87 
REMARK       I    between atoms: C_87  and  N_97 
REMARK   34  A    between atoms: CB_89  and  CG_90 
REMARK   35  A    between atoms: N_97  and  CA_98 
REMARK   36  A    between atoms: CA_98  and  C_99 
REMARK   37  A    between atoms: CA_98  and  CB_102 
REMARK   38  A    between atoms: CB_102  and  CG_103 
ROOT
ATOM      1  C   TYR A   5      -7.974 -15.785   8.690  1.00  0.00     0.241 C 
ATOM      2  O   TYR A   5      -8.085 -16.093   7.506  1.00  0.00    -0.271 OA
ATOM      3  N   ARG A   6      -8.935 -16.083   9.582  1.00  0.00    -0.346 N 
ATOM      4  H   ARG A   6      -8.774 -15.815  10.550  1.00  0.00     0.163 HD
ENDROOT
BRANCH   3   5
ATOM      5  CA  ARG A   6     -10.170 -16.826   9.247  1.00  0.00     0.176 C 
BRANCH   5   6
ATOM      6  CB  ARG A   6     -10.503 -17.788  10.405  1.00  0.00     0.036 C 
BRANCH   6   7
ATOM      7  CG  ARG A   6      -9.536 -18.992  10.494  1.00  0.00     0.023 C 
BRANCH   7   8
ATOM      8  CD  ARG A   6     -10.176 -20.323  10.069  1.00  0.00     0.138 C 
BRANCH   8   9
ATOM      9  NE  ARG A   6      -9.160 -21.351   9.753  1.00  0.00    -0.227 N 
ATOM     10  HE  ARG A   6      -8.766 -21.830  10.543  1.00  0.00     0.177 HD
ATOM     11  CZ  ARG A   6      -8.791 -21.789   8.560  1.00  0.00     0.665 C 
ATOM     12  NH2 ARG A   6      -7.973 -22.791   8.474  1.00  0.00    -0.235 N 
ATOM     13  NH1 ARG A   6      -9.214 -21.277   7.439  1.00  0.00    -0.235 N 
ATOM     14 1HH2 ARG A   6      -7.866 -23.371   9.284  1.00  0.00     0.174 HD
ATOM     15 2HH2 ARG A   6      -7.965 -23.297   7.603  1.00  0.00     0.174 HD
ATOM     16 1HH1 ARG A   6     -10.003 -20.656   7.460  1.00  0.00     0.174 HD
ATOM     17 2HH1 ARG A   6      -8.941 -21.689   6.566  1.00  0.00     0.174 HD
ENDBRANCH   8   9
ENDBRANCH   7   8
ENDBRANCH   6   7
ENDBRANCH   5   6
BRANCH   5  18
ATOM     18  C   ARG A   6     -11.374 -15.919   8.907  1.00  0.00     0.241 C 
ATOM     19  N   ASN A   7     -12.304 -15.673   9.841  1.00  0.00    -0.346 N 
ATOM     20  H   ASN A   7     -12.139 -15.999  10.784  1.00  0.00     0.163 HD
ATOM     21  O   ARG A   6     -11.519 -15.544   7.750  1.00  0.00    -0.271 OA
BRANCH  19  22
ATOM     22  CA  ASN A   7     -13.421 -14.738   9.604  1.00  0.00     0.185 C 
BRANCH  22  23
ATOM     23  CB  ASN A   7     -14.640 -15.100  10.474  1.00  0.00     0.137 C 
BRANCH  23  24
ATOM     24  CG  ASN A   7     -15.661 -16.064   9.904  1.00  0.00     0.217 C 
ATOM     25  ND2 ASN A   7     -15.411 -17.336  10.128  1.00  0.00    -0.370 N 
ATOM     26 2HD2 ASN A   7     -14.490 -17.616  10.458  1.00  0.00     0.159 HD
ATOM     27 1HD2 ASN A   7     -16.092 -18.003   9.834  1.00  0.00     0.159 HD
ATOM     28  OD1 ASN A   7     -16.768 -15.721   9.497  1.00  0.00    -0.274 OA
ENDBRANCH  23  24
ENDBRANCH  22  23
BRANCH  22  29
ATOM     29  C   ASN A   7     -13.055 -13.261   9.872  1.00  0.00     0.241 C 
ATOM     30  N   PHE A   8     -12.758 -12.488   8.816  1.00  0.00    -0.346 N 
ATOM     31  H   PHE A   8     -12.732 -12.922   7.899  1.00  0.00     0.163 HD
ATOM     32  O   ASN A   7     -12.916 -12.878  11.033  1.00  0.00    -0.271 OA
BRANCH  30  33
ATOM     33  CA  PHE A   8     -12.489 -11.045   8.895  1.00  0.00     0.180 C 
BRANCH  33  34
ATOM     34  CB  PHE A   8     -11.166 -10.779   8.146  1.00  0.00     0.073 C 
BRANCH  34  35
ATOM     35  CG  PHE A   8     -10.584  -9.393   8.361  1.00  0.00    -0.056 A 
ATOM     36  CD1 PHE A   8     -10.434  -8.511   7.274  1.00  0.00     0.007 A 
ATOM     37  CE1 PHE A   8      -9.773  -7.282   7.451  1.00  0.00     0.001 A 
ATOM     38  CZ  PHE A   8      -9.264  -6.932   8.715  1.00  0.00     0.000 A 
ATOM     39  CE2 PHE A   8      -9.443  -7.797   9.808  1.00  0.00     0.001 A 
ATOM     40  CD2 PHE A   8     -10.108  -9.023   9.633  1.00  0.00     0.007 A 
ENDBRANCH  34  35
ENDBRANCH  33  34
BRANCH  33  41
ATOM     41  C   PHE A   8     -13.658 -10.179   8.361  1.00  0.00     0.241 C 
ATOM     42  N   TRP A   9     -14.094  -9.189   9.155  1.00  0.00    -0.344 N 
ATOM     43  H   TRP A   9     -13.623  -9.066  10.038  1.00  0.00     0.163 HD
ATOM     44  O   PHE A   8     -14.168 -10.453   7.272  1.00  0.00    -0.271 OA
BRANCH  42  45
ATOM     45  CA  TRP A   9     -15.233  -8.288   8.905  1.00  0.00     0.190 C 
BRANCH  45  46
ATOM     46  C   TRP A   9     -16.523  -8.985   8.420  1.00  0.00     0.197 C 
ATOM     47  OXT TRP A   9     -17.030  -8.564   7.348  1.00  0.00    -0.646 OA
ATOM     48  O   TRP A   9     -17.163  -9.624   9.282  1.00  0.00    -0.646 OA
ENDBRANCH  45  46
BRANCH  45  49
ATOM     49  CB  TRP A   9     -14.764  -7.228   7.895  1.00  0.00     0.077 C 
BRANCH  49  50
ATOM     50  CG  TRP A   9     -14.809  -5.829   8.418  1.00  0.00    -0.028 A 
ATOM     51  CD1 TRP A   9     -15.949  -5.134   8.605  1.00  0.00     0.096 A 
ATOM     52  NE1 TRP A   9     -15.676  -3.945   9.248  1.00  0.00    -0.365 N 
ATOM     53  HE1 TRP A   9     -16.402  -3.380   9.654  1.00  0.00     0.165 HD
ATOM     54  CE2 TRP A   9     -14.340  -3.847   9.567  1.00  0.00     0.042 A 
ATOM     55  CD2 TRP A   9     -13.754  -5.040   9.048  1.00  0.00    -0.002 A 
ATOM     56  CZ2 TRP A   9     -13.608  -2.898  10.293  1.00  0.00     0.030 A 
ATOM     57  CE3 TRP A   9     -12.379  -5.240   9.304  1.00  0.00     0.014 A 
ATOM     58  CZ3 TRP A   9     -11.636  -4.301  10.048  1.00  0.00     0.001 A 
ATOM     59  CH2 TRP A   9     -12.245  -3.132  10.540  1.00  0.00     0.002 A 
ENDBRANCH  49  50
ENDBRANCH  45  49
ENDBRANCH  42  45
ENDBRANCH  33  41
ENDBRANCH  30  33
ENDBRANCH  22  29
ENDBRANCH  19  22
ENDBRANCH   5  18
ENDBRANCH   3   5
BRANCH   1  60
ATOM     60  CA  TYR A   5      -6.866 -14.798   9.097  1.00  0.00     0.180 C 
BRANCH  60  61
ATOM     61  N   TYR A   5      -5.813 -15.443   9.890  1.00  0.00    -0.346 N 
ATOM     62  H   TYR A   5      -5.730 -15.200  10.867  1.00  0.00     0.163 HD
ATOM     63  C   GLU A   4      -4.892 -16.256   9.346  1.00  0.00     0.241 C 
ATOM     64  O   GLU A   4      -4.841 -16.427   8.131  1.00  0.00    -0.271 OA
BRANCH  63  65
ATOM     65  CA  GLU A   4      -3.720 -16.696  10.234  1.00  0.00     0.177 C 
BRANCH  65  66
ATOM     66  N   GLU A   4      -2.719 -17.453   9.460  1.00  0.00    -0.346 N 
ATOM     67  H   GLU A   4      -2.683 -17.271   8.465  1.00  0.00     0.163 HD
ATOM     68  C   PRO A   3      -2.073 -18.538   9.896  1.00  0.00     0.241 C 
ATOM     69  O   PRO A   3      -2.210 -18.984  11.023  1.00  0.00    -0.271 OA
BRANCH  68  70
ATOM     70  CA  PRO A   3      -1.096 -19.238   8.941  1.00  0.00     0.179 C 
ATOM     71  N   PRO A   3       0.344 -19.050   9.218  1.00  0.00    -0.337 N 
ATOM     72  CD  PRO A   3       0.987 -20.360   9.282  1.00  0.00     0.127 C 
ATOM     73  C   ASP A   2       0.957 -17.838   9.154  1.00  0.00     0.243 C 
ATOM     74  CG  PRO A   3       0.032 -21.317   8.570  1.00  0.00     0.022 C 
ATOM     75  CB  PRO A   3      -1.333 -20.756   8.954  1.00  0.00     0.037 C 
ATOM     76  O   ASP A   2       0.249 -16.832   9.069  1.00  0.00    -0.271 OA
BRANCH  73  77
ATOM     77  CA  ASP A   2       2.431 -17.625   9.651  1.00  0.00     0.186 C 
BRANCH  77  78
ATOM     78  CB  ASP A   2       2.985 -16.205   9.450  1.00  0.00     0.147 C 
BRANCH  78  79
ATOM     79  CG  ASP A   2       3.478 -16.000   8.028  1.00  0.00     0.175 C 
ATOM     80  OD2 ASP A   2       2.877 -15.103   7.391  1.00  0.00    -0.648 OA
ATOM     81  OD1 ASP A   2       4.588 -16.476   7.762  1.00  0.00    -0.648 OA
ENDBRANCH  78  79
ENDBRANCH  77  78
BRANCH  77  82
ATOM     82  N   ASP A   2       3.461 -18.575   9.159  1.00  0.00    -0.345 N 
ATOM     83  H   ASP A   2       3.619 -18.521   8.164  1.00  0.00     0.163 HD
ATOM     84  C   TYR A   1       4.387 -19.147   9.947  1.00  0.00     0.249 C 
ATOM     85  O   TYR A   1       4.305 -19.129  11.153  1.00  0.00    -0.271 OA
BRANCH  84  86
ATOM     86  CA  TYR A   1       5.378 -20.145   9.386  1.00  0.00     0.278 C 
BRANCH  86  87
ATOM     87  N   TYR A   1       5.204 -20.319   7.935  1.00  0.00    -0.066 N 
ATOM     88  H2  TYR A   1       4.640 -19.571   7.557  1.00  0.00     0.275 HD
ATOM     89  H1  TYR A   1       4.749 -21.205   7.762  1.00  0.00     0.275 HD
ATOM     90  H3  TYR A   1       6.113 -20.314   7.485  1.00  0.00     0.275 HD
ENDBRANCH  86  87
BRANCH  86  91
ATOM     91  CB  TYR A   1       6.833 -19.911   9.793  1.00  0.00     0.081 C 
BRANCH  91  92
ATOM     92  CG  TYR A   1       7.317 -18.523   9.412  1.00  0.00    -0.056 A 
ATOM     93  CD2 TYR A   1       8.026 -18.346   8.202  1.00  0.00     0.010 A 
ATOM     94  CE2 TYR A   1       8.507 -17.073   7.847  1.00  0.00     0.037 A 
ATOM     95  CZ  TYR A   1       8.270 -15.968   8.696  1.00  0.00     0.065 A 
ATOM     96  CE1 TYR A   1       7.533 -16.136   9.883  1.00  0.00     0.037 A 
ATOM     97  CD1 TYR A   1       7.050 -17.413  10.248  1.00  0.00     0.010 A 
BRANCH  95  98
ATOM     98  OH  TYR A   1       8.744 -14.743   8.371  1.00  0.00    -0.361 OA
ATOM     99  HH  TYR A   1       9.680 -14.662   8.560  1.00  0.00     0.217 HD
ENDBRANCH  95  98
ENDBRANCH  91  92
ENDBRANCH  86  91
ENDBRANCH  84  86
ENDBRANCH  77  82
ENDBRANCH  73  77
ENDBRANCH  68  70
ENDBRANCH  65  66
BRANCH  65 100
ATOM    100  CB  GLU A   4      -3.034 -15.478  10.891  1.00  0.00     0.045 C 
BRANCH 100 101
ATOM    101  CG  GLU A   4      -2.317 -14.521   9.925  1.00  0.00     0.116 C 
BRANCH 101 102
ATOM    102  CD  GLU A   4      -2.076 -13.142  10.564  1.00  0.00     0.172 C 
ATOM    103  OE2 GLU A   4      -0.895 -12.728  10.545  1.00  0.00    -0.648 OA
ATOM    104  OE1 GLU A   4      -2.964 -12.712  11.342  1.00  0.00    -0.648 OA
ENDBRANCH 101 102
ENDBRANCH 100 101
ENDBRANCH  65 100
ENDBRANCH  63  65
ENDBRANCH  60  61
BRANCH  60 105
ATOM    105  CB  TYR A   5      -6.260 -14.084   7.874  1.00  0.00     0.073 C 
BRANCH 105 106
ATOM    106  CG  TYR A   5      -6.184 -12.562   7.949  1.00  0.00    -0.056 A 
ATOM    107  CD1 TYR A   5      -7.136 -11.757   7.278  1.00  0.00     0.010 A 
ATOM    108  CE1 TYR A   5      -7.147 -10.356   7.486  1.00  0.00     0.037 A 
ATOM    109  CZ  TYR A   5      -6.205  -9.766   8.349  1.00  0.00     0.065 A 
ATOM    110  CE2 TYR A   5      -5.237 -10.563   8.994  1.00  0.00     0.037 A 
ATOM    111  CD2 TYR A   5      -5.231 -11.958   8.801  1.00  0.00     0.010 A 
BRANCH 109 112
ATOM    112  OH  TYR A   5      -6.232  -8.431   8.569  1.00  0.00    -0.361 OA
ATOM    113  HH  TYR A   5      -5.947  -7.971   7.777  1.00  0.00     0.217 HD
ENDBRANCH 109 112
ENDBRANCH 105 106
ENDBRANCH  60 105
ENDBRANCH   1  60
TORSDOF 38
ENDMDL
MODEL 2
REMARK VINA RESULT:      -2.7      4.758     10.145
REMARK WARNING: 32 MAX_TORS EXCEEDED!!!
REMARK  38 active torsions:
REMARK  status: ('A' for Active; 'I' for Inactive)
REMARK    1  A    between atoms: N_1  and  CA_2 
REMARK    2  A    between atoms: CA_2  and  CB_5 
REMARK    3  A    between atoms: CA_2  and  C_3 
REMARK       I    between atoms: C_3  and  N_17 
REMARK    4  A    between atoms: CB_5  and  CG_6 
REMARK    5  A    between atoms: CZ_10  and  OH_11 
REMARK    6  A    between atoms: N_17  and  CA_18 
REMARK    7  A    between atoms: CA_18  and  CB_21 
REMARK    8  A    between atoms: CA_18  and  C_19 
REMARK       I    between atoms: C_19  and  N_26 
REMARK    9  A    between atoms: CB_21  and  CG_22 
REMARK   10  A    between atoms: CA_27  and  C_28 
REMARK       I    between atoms: C_28  and  N_33 
REMARK   11  A    between atoms: N_33  and  CA_34 
REMARK   12  A    between atoms: CA_34  and  C_35 
REMARK   13  A    between atoms: CA_34  and  CB_37 
REMARK       I    between atoms: C_35  and  N_43 
REMARK   14  A    between atoms: CB_37  and  CG_38 
REMARK   15  A    between atoms: CG_38  and  CD_39 
REMARK   16  A    between atoms: N_43  and  CA_44 
REMARK   17  A    between atoms: CA_44  and  CB_47 
REMARK   18  A    between atoms: CA_44  and  C_45 
REMARK       I    between atoms: C_45  and  N_57 
REMARK   19  A    between atoms: CB_47  and  CG_48 
REMARK   20  A    between atoms: CZ_52  and  OH_53 
REMARK   21  A    between atoms: N_57  and  CA_58 
REMARK   22  A    between atoms: CA_58  and  CB_61 
REMARK   23  A    between atoms: CA_58  and  C_59 
REMARK       I    between atoms: C_59  and  N_74 
REMARK   24  A    between atoms: CB_61  and  CG_62 
REMARK   25  A    between atoms: CG_62  and  CD_63 
REMARK   26  A    between atoms: CD_63  and  NE_64 
REMARK       I    between atoms: NE_64  and  CZ_65 
REMARK       I    between atoms: CZ_65  and  NH2_66 
REMARK   27  A    between atoms: N_74  and  CA_75 
REMARK   28  A    between atoms: CA_75  and  CB_78 
REMARK   29  A    between atoms: CA_75  and  C_76 
REMARK       I    between atoms: C_76  and  N_85 
REMARK   30  A    between atoms: CB_78  and  CG_79 
REMARK       I    between atoms: CG_79  and  ND2_80 
REMARK   31  A    between atoms: N_85  and  CA_86 
REMARK   32  A    between atoms: CA_86  and  CB_89 
REMARK   33  A    between atoms: CA_86  and  C_87 
REMARK       I    between atoms: C_87  and  N_97 
REMARK   34  A    between atoms: CB_89  and  CG_90 
REMARK   35  A    between atoms: N_97  and  CA_98 
REMARK   36  A    between atoms: CA_98  and  C_99 
REMARK   37  A    between atoms: CA_98  and  CB_102 
REMARK   38  A    between atoms: CB_102  and  CG_103 
ROOT
ATOM      1  C   TYR A   5      -8.251 -17.603   8.494  1.00  0.00     0.241 C 
ATOM      2  O   TYR A   5      -8.678 -17.491   7.347  1.00  0.00    -0.271 OA
ATOM      3  N   ARG A   6      -8.729 -18.542   9.329  1.00  0.00    -0.346 N 
ATOM      4  H   ARG A   6      -8.320 -18.593  10.259  1.00  0.00     0.163 HD
ENDROOT
BRANCH   3   5
ATOM      5  CA  ARG A   6      -9.760 -19.534   8.951  1.00  0.00     0.176 C 
BRANCH   5   6
ATOM      6  CB  ARG A   6      -9.425 -20.882   9.621  1.00  0.00     0.036 C 
BRANCH   6   7
ATOM      7  CG  ARG A   6      -9.525 -22.084   8.654  1.00  0.00     0.023 C 
BRANCH   7   8
ATOM      8  CD  ARG A   6     -10.951 -22.638   8.511  1.00  0.00     0.138 C 
BRANCH   8   9
ATOM      9  NE  ARG A   6     -10.966 -24.114   8.408  1.00  0.00    -0.227 N 
ATOM     10  HE  ARG A   6     -11.370 -24.488   7.568  1.00  0.00     0.177 HD
ATOM     11  CZ  ARG A   6     -10.416 -24.991   9.233  1.00  0.00     0.665 C 
ATOM     12  NH2 ARG A   6     -10.417 -26.249   8.919  1.00  0.00    -0.235 N 
ATOM     13  NH1 ARG A   6      -9.849 -24.667  10.361  1.00  0.00    -0.235 N 
ATOM     14 1HH2 ARG A   6     -10.577 -26.484   7.958  1.00  0.00     0.174 HD
ATOM     15 2HH2 ARG A   6      -9.735 -26.831   9.376  1.00  0.00     0.174 HD
ATOM     16 1HH1 ARG A   6      -9.636 -23.701  10.533  1.00  0.00     0.174 HD
ATOM     17 2HH1 ARG A   6      -9.401 -25.372  10.916  1.00  0.00     0.174 HD
ENDBRANCH   8   9
ENDBRANCH   7   8
ENDBRANCH   6   7
ENDBRANCH   5   6
BRANCH   5  18
ATOM     18  C   ARG A   6     -11.205 -19.090   9.273  1.00  0.00     0.241 C 
ATOM     19  N   ASN A   7     -11.826 -19.587  10.352  1.00  0.00    -0.346 N 
ATOM     20  H   ASN A   7     -11.295 -20.161  10.994  1.00  0.00     0.163 HD
ATOM     21  O   ARG A   6     -11.797 -18.387   8.465  1.00  0.00    -0.271 OA
BRANCH  19  22
ATOM     22  CA  ASN A   7     -13.167 -19.127  10.763  1.00  0.00     0.185 C 
BRANCH  22  23
ATOM     23  CB  ASN A   7     -13.395 -17.657  10.361  1.00  0.00     0.137 C 
BRANCH  23  24
ATOM     24  CG  ASN A   7     -14.822 -17.160  10.256  1.00  0.00     0.217 C 
ATOM     25  ND2 ASN A   7     -15.362 -16.774  11.392  1.00  0.00    -0.370 N 
ATOM     26 2HD2 ASN A   7     -14.910 -17.018  12.271  1.00  0.00     0.159 HD
ATOM     27 1HD2 ASN A   7     -16.275 -16.373  11.362  1.00  0.00     0.159 HD
ATOM     28  OD1 ASN A   7     -15.369 -16.877   9.194  1.00  0.00    -0.274 OA
ENDBRANCH  23  24
ENDBRANCH  22  23
BRANCH  22  29
ATOM     29  C   ASN A   7     -14.316 -19.975  10.176  1.00  0.00     0.241 C 
ATOM     30  N   PHE A   8     -15.204 -20.504  11.032  1.00  0.00    -0.346 N 
ATOM     31  H   PHE A   8     -15.048 -20.371  12.025  1.00  0.00     0.163 HD
ATOM     32  O   ASN A   7     -14.308 -20.250   8.977  1.00  0.00    -0.271 OA
BRANCH  30  33
ATOM     33  CA  PHE A   8     -16.405 -21.248  10.623  1.00  0.00     0.180 C 
BRANCH  33  34
ATOM     34  CB  PHE A   8     -17.150 -20.387   9.581  1.00  0.00     0.073 C 
BRANCH  34  35
ATOM     35  CG  PHE A   8     -18.619 -20.151   9.888  1.00  0.00    -0.056 A 
ATOM     36  CD1 PHE A   8     -19.180 -18.870   9.727  1.00  0.00     0.007 A 
ATOM     37  CE1 PHE A   8     -20.503 -18.624  10.138  1.00  0.00     0.001 A 
ATOM     38  CZ  PHE A   8     -21.267 -19.658  10.706  1.00  0.00     0.000 A 
ATOM     39  CE2 PHE A   8     -20.719 -20.946  10.836  1.00  0.00     0.001 A 
ATOM     40  CD2 PHE A   8     -19.400 -21.194  10.421  1.00  0.00     0.007 A 
ENDBRANCH  34  35
ENDBRANCH  33  34
BRANCH  33  41
ATOM     41  C   PHE A   8     -16.089 -22.671  10.099  1.00  0.00     0.241 C 
ATOM     42  N   TRP A   9     -15.786 -23.603  11.016  1.00  0.00    -0.344 N 
ATOM     43  H   TRP A   9     -15.801 -23.319  11.984  1.00  0.00     0.163 HD
ATOM     44  O   PHE A   8     -16.077 -22.882   8.885  1.00  0.00    -0.271 OA
BRANCH  42  45
ATOM     45  CA  TRP A   9     -15.377 -24.996  10.763  1.00  0.00     0.190 C 
BRANCH  45  46
ATOM     46  C   TRP A   9     -13.916 -25.173  10.295  1.00  0.00     0.197 C 
ATOM     47  OXT TRP A   9     -13.042 -24.485  10.884  1.00  0.00    -0.646 OA
ATOM     48  O   TRP A   9     -13.756 -25.667   9.159  1.00  0.00    -0.646 OA
ENDBRANCH  45  46
BRANCH  45  49
ATOM     49  CB  TRP A   9     -16.360 -25.583   9.738  1.00  0.00     0.077 C 
BRANCH  49  50
ATOM     50  CG  TRP A   9     -17.403 -26.472  10.335  1.00  0.00    -0.028 A 
ATOM     51  CD1 TRP A   9     -18.707 -26.143  10.427  1.00  0.00     0.096 A 
ATOM     52  NE1 TRP A   9     -19.436 -27.226  10.868  1.00  0.00    -0.365 N 
ATOM     53  HE1 TRP A   9     -20.440 -27.250  10.814  1.00  0.00     0.165 HD
ATOM     54  CE2 TRP A   9     -18.636 -28.336  11.022  1.00  0.00     0.042 A 
ATOM     55  CD2 TRP A   9     -17.324 -27.886  10.689  1.00  0.00    -0.002 A 
ATOM     56  CZ2 TRP A   9     -18.919 -29.669  11.347  1.00  0.00     0.030 A 
ATOM     57  CE3 TRP A   9     -16.297 -28.857  10.690  1.00  0.00     0.014 A 
ATOM     58  CZ3 TRP A   9     -16.572 -30.205  10.996  1.00  0.00     0.001 A 
ATOM     59  CH2 TRP A   9     -17.878 -30.612  11.327  1.00  0.00     0.002 A 
ENDBRANCH  49  50
ENDBRANCH  45  49
ENDBRANCH  42  45
ENDBRANCH  33  41
ENDBRANCH  30  33
ENDBRANCH  22  29
ENDBRANCH  19  22
ENDBRANCH   5  18
ENDBRANCH   3   5
BRANCH   1  60
ATOM     60  CA  TYR A   5      -7.373 -16.477   9.070  1.00  0.00     0.180 C 
BRANCH  60  61
ATOM     61  N   TYR A   5      -6.186 -16.996   9.758  1.00  0.00    -0.346 N 
ATOM     62  H   TYR A   5      -6.166 -16.974  10.767  1.00  0.00     0.163 HD
ATOM     63  C   GLU A   4      -5.086 -17.398   9.098  1.00  0.00     0.241 C 
ATOM     64  O   GLU A   4      -4.996 -17.264   7.882  1.00  0.00    -0.271 OA
BRANCH  63  65
ATOM     65  CA  GLU A   4      -3.836 -17.716   9.931  1.00  0.00     0.177 C 
BRANCH  65  66
ATOM     66  N   GLU A   4      -2.731 -18.186   9.076  1.00  0.00    -0.346 N 
ATOM     67  H   GLU A   4      -2.708 -17.832   8.129  1.00  0.00     0.163 HD
ATOM     68  C   PRO A   3      -1.946 -19.235   9.344  1.00  0.00     0.241 C 
ATOM     69  O   PRO A   3      -2.034 -19.883  10.373  1.00  0.00    -0.271 OA
BRANCH  68  70
ATOM     70  CA  PRO A   3      -0.870 -19.620   8.319  1.00  0.00     0.179 C 
ATOM     71  N   PRO A   3       0.535 -19.408   8.728  1.00  0.00    -0.337 N 
ATOM     72  CD  PRO A   3       1.277 -20.651   8.527  1.00  0.00     0.127 C 
ATOM     73  C   ASP A   2       1.051 -18.178   8.990  1.00  0.00     0.243 C 
ATOM     74  CG  PRO A   3       0.439 -21.472   7.550  1.00  0.00     0.022 C 
ATOM     75  CB  PRO A   3      -0.985 -21.109   7.961  1.00  0.00     0.037 C 
ATOM     76  O   ASP A   2       0.269 -17.230   9.096  1.00  0.00    -0.271 OA
BRANCH  73  77
ATOM     77  CA  ASP A   2       2.476 -17.992   9.620  1.00  0.00     0.186 C 
BRANCH  77  78
ATOM     78  CB  ASP A   2       3.039 -16.563   9.543  1.00  0.00     0.147 C 
BRANCH  78  79
ATOM     79  CG  ASP A   2       3.436 -16.202   8.121  1.00  0.00     0.175 C 
ATOM     80  OD2 ASP A   2       2.905 -15.155   7.680  1.00  0.00    -0.648 OA
ATOM     81  OD1 ASP A   2       4.450 -16.756   7.681  1.00  0.00    -0.648 OA
ENDBRANCH  78  79
ENDBRANCH  77  78
BRANCH  77  82
ATOM     82  N   ASP A   2       3.549 -18.915   9.168  1.00  0.00    -0.345 N 
ATOM     83  H   ASP A   2       3.752 -18.845   8.183  1.00  0.00     0.163 HD
ATOM     84  C   TYR A   1       4.448 -19.476   9.993  1.00  0.00     0.249 C 
ATOM     85  O   TYR A   1       4.310 -19.474  11.194  1.00  0.00    -0.271 OA
BRANCH  84  86
ATOM     86  CA  TYR A   1       5.486 -20.447   9.469  1.00  0.00     0.278 C 
BRANCH  86  87
ATOM     87  N   TYR A   1       5.230 -20.801   8.063  1.00  0.00    -0.066 N 
ATOM     88  H2  TYR A   1       5.180 -21.804   7.959  1.00  0.00     0.275 HD
ATOM     89  H1  TYR A   1       5.980 -20.439   7.491  1.00  0.00     0.275 HD
ATOM     90  H3  TYR A   1       4.352 -20.389   7.768  1.00  0.00     0.275 HD
ENDBRANCH  86  87
BRANCH  86  91
ATOM     91  CB  TYR A   1       6.937 -20.047   9.734  1.00  0.00     0.081 C 
BRANCH  91  92
ATOM     92  CG  TYR A   1       7.206 -18.597   9.377  1.00  0.00    -0.056 A 
ATOM     93  CD2 TYR A   1       7.582 -18.269   8.054  1.00  0.00     0.010 A 
ATOM     94  CE2 TYR A   1       7.863 -16.934   7.712  1.00  0.00     0.037 A 
ATOM     95  CZ  TYR A   1       7.757 -15.918   8.689  1.00  0.00     0.065 A 
ATOM     96  CE1 TYR A   1       7.347 -16.239   9.997  1.00  0.00     0.037 A 
ATOM     97  CD1 TYR A   1       7.067 -17.578  10.349  1.00  0.00     0.010 A 
BRANCH  95  98
ATOM     98  OH  TYR A   1       8.041 -14.634   8.373  1.00  0.00    -0.361 OA
ATOM     99  HH  TYR A   1       8.119 -14.509   7.426  1.00  0.00     0.217 HD
ENDBRANCH  95  98
ENDBRANCH  91  92
ENDBRANCH  86  91
ENDBRANCH  84  86
ENDBRANCH  77  82
ENDBRANCH  73  77
ENDBRANCH  68  70
ENDBRANCH  65  66
BRANCH  65 100
ATOM    100  CB  GLU A   4      -3.368 -16.477  10.725  1.00  0.00     0.045 C 
BRANCH 100 101
ATOM    101  CG  GLU A   4      -3.817 -15.120  10.161  1.00  0.00     0.116 C 
BRANCH 101 102
ATOM    102  CD  GLU A   4      -2.677 -14.409   9.411  1.00  0.00     0.172 C 
ATOM    103  OE2 GLU A   4      -1.902 -15.149   8.763  1.00  0.00    -0.648 OA
ATOM    104  OE1 GLU A   4      -2.399 -13.239   9.774  1.00  0.00    -0.648 OA
ENDBRANCH 101 102
ENDBRANCH 100 101
ENDBRANCH  65 100
ENDBRANCH  63  65
ENDBRANCH  60  61
BRANCH  60 105
ATOM    105  CB  TYR A   5      -6.969 -15.458   7.988  1.00  0.00     0.073 C 
BRANCH 105 106
ATOM    106  CG  TYR A   5      -6.737 -14.027   8.461  1.00  0.00    -0.056 A 
ATOM    107  CD1 TYR A   5      -7.303 -13.565   9.673  1.00  0.00     0.010 A 
ATOM    108  CE1 TYR A   5      -6.950 -12.290  10.177  1.00  0.00     0.037 A 
ATOM    109  CZ  TYR A   5      -6.046 -11.478   9.466  1.00  0.00     0.065 A 
ATOM    110  CE2 TYR A   5      -5.505 -11.925   8.241  1.00  0.00     0.037 A 
ATOM    111  CD2 TYR A   5      -5.843 -13.198   7.745  1.00  0.00     0.010 A 
BRANCH 109 112
ATOM    112  OH  TYR A   5      -5.686 -10.271   9.959  1.00  0.00    -0.361 OA
ATOM    113  HH  TYR A   5      -6.272 -10.034  10.681  1.00  0.00     0.217 HD
ENDBRANCH 109 112
ENDBRANCH 105 106
ENDBRANCH  60 105
ENDBRANCH   1  60
TORSDOF 38
ENDMDL
MODEL 3
REMARK VINA RESULT:      -2.7      2.156      3.580
REMARK WARNING: 32 MAX_TORS EXCEEDED!!!
REMARK  38 active torsions:
REMARK  status: ('A' for Active; 'I' for Inactive)
REMARK    1  A    between atoms: N_1  and  CA_2 
REMARK    2  A    between atoms: CA_2  and  CB_5 
REMARK    3  A    between atoms: CA_2  and  C_3 
REMARK       I    between atoms: C_3  and  N_17 
REMARK    4  A    between atoms: CB_5  and  CG_6 
REMARK    5  A    between atoms: CZ_10  and  OH_11 
REMARK    6  A    between atoms: N_17  and  CA_18 
REMARK    7  A    between atoms: CA_18  and  CB_21 
REMARK    8  A    between atoms: CA_18  and  C_19 
REMARK       I    between atoms: C_19  and  N_26 
REMARK    9  A    between atoms: CB_21  and  CG_22 
REMARK   10  A    between atoms: CA_27  and  C_28 
REMARK       I    between atoms: C_28  and  N_33 
REMARK   11  A    between atoms: N_33  and  CA_34 
REMARK   12  A    between atoms: CA_34  and  C_35 
REMARK   13  A    between atoms: CA_34  and  CB_37 
REMARK       I    between atoms: C_35  and  N_43 
REMARK   14  A    between atoms: CB_37  and  CG_38 
REMARK   15  A    between atoms: CG_38  and  CD_39 
REMARK   16  A    between atoms: N_43  and  CA_44 
REMARK   17  A    between atoms: CA_44  and  CB_47 
REMARK   18  A    between atoms: CA_44  and  C_45 
REMARK       I    between atoms: C_45  and  N_57 
REMARK   19  A    between atoms: CB_47  and  CG_48 
REMARK   20  A    between atoms: CZ_52  and  OH_53 
REMARK   21  A    between atoms: N_57  and  CA_58 
REMARK   22  A    between atoms: CA_58  and  CB_61 
REMARK   23  A    between atoms: CA_58  and  C_59 
REMARK       I    between atoms: C_59  and  N_74 
REMARK   24  A    between atoms: CB_61  and  CG_62 
REMARK   25  A    between atoms: CG_62  and  CD_63 
REMARK   26  A    between atoms: CD_63  and  NE_64 
REMARK       I    between atoms: NE_64  and  CZ_65 
REMARK       I    between atoms: CZ_65  and  NH2_66 
REMARK   27  A    between atoms: N_74  and  CA_75 
REMARK   28  A    between atoms: CA_75  and  CB_78 
REMARK   29  A    between atoms: CA_75  and  C_76 
REMARK       I    between atoms: C_76  and  N_85 
REMARK   30  A    between atoms: CB_78  and  CG_79 
REMARK       I    between atoms: CG_79  and  ND2_80 
REMARK   31  A    between atoms: N_85  and  CA_86 
REMARK   32  A    between atoms: CA_86  and  CB_89 
REMARK   33  A    between atoms: CA_86  and  C_87 
REMARK       I    between atoms: C_87  and  N_97 
REMARK   34  A    between atoms: CB_89  and  CG_90 
REMARK   35  A    between atoms: N_97  and  CA_98 
REMARK   36  A    between atoms: CA_98  and  C_99 
REMARK   37  A    between atoms: CA_98  and  CB_102 
REMARK   38  A    between atoms: CB_102  and  CG_103 
ROOT
ATOM      1  C   TYR A   5      -9.753 -17.117  10.255  1.00  0.00     0.241 C 
ATOM      2  O   TYR A   5      -9.449 -18.284  10.025  1.00  0.00    -0.271 OA
ATOM      3  N   ARG A   6     -10.988 -16.652   9.998  1.00  0.00    -0.346 N 
ATOM      4  H   ARG A   6     -11.180 -15.680  10.229  1.00  0.00     0.163 HD
ENDROOT
BRANCH   3   5
ATOM      5  CA  ARG A   6     -12.088 -17.486   9.465  1.00  0.00     0.176 C 
BRANCH   5   6
ATOM      6  CB  ARG A   6     -12.897 -18.059  10.646  1.00  0.00     0.036 C 
BRANCH   6   7
ATOM      7  CG  ARG A   6     -13.473 -19.466  10.363  1.00  0.00     0.023 C 
BRANCH   7   8
ATOM      8  CD  ARG A   6     -12.393 -20.545  10.181  1.00  0.00     0.138 C 
BRANCH   8   9
ATOM      9  NE  ARG A   6     -11.631 -20.361   8.927  1.00  0.00    -0.227 N 
ATOM     10  HE  ARG A   6     -12.084 -19.813   8.218  1.00  0.00     0.177 HD
ATOM     11  CZ  ARG A   6     -10.388 -20.737   8.669  1.00  0.00     0.665 C 
ATOM     12  NH2 ARG A   6      -9.832 -20.378   7.554  1.00  0.00    -0.235 N 
ATOM     13  NH1 ARG A   6      -9.663 -21.448   9.486  1.00  0.00    -0.235 N 
ATOM     14 1HH2 ARG A   6     -10.246 -19.613   7.057  1.00  0.00     0.174 HD
ATOM     15 2HH2 ARG A   6      -8.826 -20.391   7.524  1.00  0.00     0.174 HD
ATOM     16 1HH1 ARG A   6      -9.973 -21.556  10.435  1.00  0.00     0.174 HD
ATOM     17 2HH1 ARG A   6      -8.708 -21.653   9.258  1.00  0.00     0.174 HD
ENDBRANCH   8   9
ENDBRANCH   7   8
ENDBRANCH   6   7
ENDBRANCH   5   6
BRANCH   5  18
ATOM     18  C   ARG A   6     -13.004 -16.749   8.462  1.00  0.00     0.241 C 
ATOM     19  N   ASN A   7     -14.130 -16.167   8.897  1.00  0.00    -0.346 N 
ATOM     20  H   ASN A   7     -14.302 -16.130   9.894  1.00  0.00     0.163 HD
ATOM     21  O   ARG A   6     -12.743 -16.819   7.268  1.00  0.00    -0.271 OA
BRANCH  19  22
ATOM     22  CA  ASN A   7     -14.992 -15.367   8.004  1.00  0.00     0.185 C 
BRANCH  22  23
ATOM     23  CB  ASN A   7     -16.381 -16.016   7.847  1.00  0.00     0.137 C 
BRANCH  23  24
ATOM     24  CG  ASN A   7     -16.862 -16.945   8.943  1.00  0.00     0.217 C 
ATOM     25  ND2 ASN A   7     -17.828 -16.464   9.695  1.00  0.00    -0.370 N 
ATOM     26 2HD2 ASN A   7     -18.047 -15.471   9.658  1.00  0.00     0.159 HD
ATOM     27 1HD2 ASN A   7     -18.225 -17.067  10.384  1.00  0.00     0.159 HD
ATOM     28  OD1 ASN A   7     -16.586 -18.140   8.992  1.00  0.00    -0.274 OA
ENDBRANCH  23  24
ENDBRANCH  22  23
BRANCH  22  29
ATOM     29  C   ASN A   7     -15.188 -13.910   8.480  1.00  0.00     0.241 C 
ATOM     30  N   PHE A   8     -14.774 -13.595   9.717  1.00  0.00    -0.346 N 
ATOM     31  H   PHE A   8     -14.406 -14.338  10.302  1.00  0.00     0.163 HD
ATOM     32  O   ASN A   7     -15.828 -13.130   7.777  1.00  0.00    -0.271 OA
BRANCH  30  33
ATOM     33  CA  PHE A   8     -14.798 -12.236  10.277  1.00  0.00     0.180 C 
BRANCH  33  34
ATOM     34  CB  PHE A   8     -13.943 -11.341   9.354  1.00  0.00     0.073 C 
BRANCH  34  35
ATOM     35  CG  PHE A   8     -12.570 -10.994   9.903  1.00  0.00    -0.056 A 
ATOM     36  CD1 PHE A   8     -11.795  -9.991   9.290  1.00  0.00     0.007 A 
ATOM     37  CE1 PHE A   8     -10.473  -9.765   9.716  1.00  0.00     0.001 A 
ATOM     38  CZ  PHE A   8      -9.927 -10.537  10.756  1.00  0.00     0.000 A 
ATOM     39  CE2 PHE A   8     -10.711 -11.516  11.391  1.00  0.00     0.001 A 
ATOM     40  CD2 PHE A   8     -12.033 -11.739  10.969  1.00  0.00     0.007 A 
ENDBRANCH  34  35
ENDBRANCH  33  34
BRANCH  33  41
ATOM     41  C   PHE A   8     -16.233 -11.685  10.473  1.00  0.00     0.241 C 
ATOM     42  N   TRP A   9     -16.470 -10.437  10.040  1.00  0.00    -0.344 N 
ATOM     43  H   TRP A   9     -15.703  -9.949   9.603  1.00  0.00     0.163 HD
ATOM     44  O   PHE A   8     -17.074 -12.376  11.051  1.00  0.00    -0.271 OA
BRANCH  42  45
ATOM     45  CA  TRP A   9     -17.721  -9.672  10.182  1.00  0.00     0.190 C 
BRANCH  45  46
ATOM     46  C   TRP A   9     -18.586  -9.591   8.906  1.00  0.00     0.197 C 
ATOM     47  OXT TRP A   9     -19.825  -9.445   9.066  1.00  0.00    -0.646 OA
ATOM     48  O   TRP A   9     -18.073 -10.046   7.861  1.00  0.00    -0.646 OA
ENDBRANCH  45  46
BRANCH  45  49
ATOM     49  CB  TRP A   9     -17.346  -8.270  10.686  1.00  0.00     0.077 C 
BRANCH  49  50
ATOM     50  CG  TRP A   9     -16.847  -7.353   9.616  1.00  0.00    -0.028 A 
ATOM     51  CD1 TRP A   9     -17.647  -6.561   8.874  1.00  0.00     0.096 A 
ATOM     52  NE1 TRP A   9     -16.883  -5.718   8.094  1.00  0.00    -0.365 N 
ATOM     53  HE1 TRP A   9     -17.279  -4.924   7.623  1.00  0.00     0.165 HD
ATOM     54  CE2 TRP A   9     -15.540  -5.885   8.349  1.00  0.00     0.042 A 
ATOM     55  CD2 TRP A   9     -15.482  -6.928   9.320  1.00  0.00    -0.002 A 
ATOM     56  CZ2 TRP A   9     -14.400  -5.211   7.893  1.00  0.00     0.030 A 
ATOM     57  CE3 TRP A   9     -14.204  -7.259   9.826  1.00  0.00     0.014 A 
ATOM     58  CZ3 TRP A   9     -13.052  -6.575   9.390  1.00  0.00     0.001 A 
ATOM     59  CH2 TRP A   9     -13.146  -5.555   8.425  1.00  0.00     0.002 A 
ENDBRANCH  49  50
ENDBRANCH  45  49
ENDBRANCH  42  45
ENDBRANCH  33  41
ENDBRANCH  30  33
ENDBRANCH  22  29
ENDBRANCH  19  22
ENDBRANCH   5  18
ENDBRANCH   3   5
BRANCH   1  60
ATOM     60  CA  TYR A   5      -8.632 -16.108  10.566  1.00  0.00     0.180 C 
BRANCH  60  61
ATOM     61  N   TYR A   5      -7.450 -16.315   9.722  1.00  0.00    -0.346 N 
ATOM     62  H   TYR A   5      -7.460 -15.948   8.781  1.00  0.00     0.163 HD
ATOM     63  C   GLU A   4      -6.404 -17.062  10.114  1.00  0.00     0.241 C 
ATOM     64  O   GLU A   4      -6.432 -17.681  11.173  1.00  0.00    -0.271 OA
BRANCH  63  65
ATOM     65  CA  GLU A   4      -5.328 -17.380   9.066  1.00  0.00     0.177 C 
BRANCH  65  66
ATOM     66  N   GLU A   4      -4.040 -16.755   9.417  1.00  0.00    -0.346 N 
ATOM     67  H   GLU A   4      -3.582 -16.219   8.690  1.00  0.00     0.163 HD
ATOM     68  C   PRO A   3      -3.303 -17.065  10.488  1.00  0.00     0.241 C 
ATOM     69  O   PRO A   3      -3.660 -17.874  11.327  1.00  0.00    -0.271 OA
BRANCH  68  70
ATOM     70  CA  PRO A   3      -1.958 -16.350  10.678  1.00  0.00     0.179 C 
ATOM     71  N   PRO A   3      -0.850 -16.787   9.801  1.00  0.00    -0.337 N 
ATOM     72  CD  PRO A   3      -0.277 -15.614   9.145  1.00  0.00     0.127 C 
ATOM     73  C   ASP A   2      -0.328 -18.042   9.839  1.00  0.00     0.243 C 
ATOM     74  CG  PRO A   3      -0.722 -14.419   9.986  1.00  0.00     0.022 C 
ATOM     75  CB  PRO A   3      -2.117 -14.842  10.436  1.00  0.00     0.037 C 
ATOM     76  O   ASP A   2      -0.937 -18.906  10.476  1.00  0.00    -0.271 OA
BRANCH  73  77
ATOM     77  CA  ASP A   2       0.700 -18.547   8.766  1.00  0.00     0.186 C 
BRANCH  77  78
ATOM     78  CB  ASP A   2       0.355 -19.902   8.125  1.00  0.00     0.147 C 
BRANCH  78  79
ATOM     79  CG  ASP A   2       1.216 -21.017   8.694  1.00  0.00     0.175 C 
ATOM     80  OD2 ASP A   2       0.609 -21.812   9.449  1.00  0.00    -0.648 OA
ATOM     81  OD1 ASP A   2       2.293 -21.221   8.120  1.00  0.00    -0.648 OA
ENDBRANCH  78  79
ENDBRANCH  77  78
BRANCH  77  82
ATOM     82  N   ASP A   2       2.131 -18.595   9.161  1.00  0.00    -0.345 N 
ATOM     83  H   ASP A   2       2.426 -19.498   9.500  1.00  0.00     0.163 HD
ATOM     84  C   TYR A   1       3.051 -17.710   8.742  1.00  0.00     0.249 C 
ATOM     85  O   TYR A   1       2.747 -16.667   8.214  1.00  0.00    -0.271 OA
BRANCH  84  86
ATOM     86  CA  TYR A   1       4.485 -17.792   9.223  1.00  0.00     0.278 C 
BRANCH  86  87
ATOM     87  N   TYR A   1       4.581 -18.497  10.512  1.00  0.00    -0.066 N 
ATOM     88  H2  TYR A   1       5.404 -19.082  10.531  1.00  0.00     0.275 HD
ATOM     89  H1  TYR A   1       3.757 -19.068  10.637  1.00  0.00     0.275 HD
ATOM     90  H3  TYR A   1       4.636 -17.817  11.262  1.00  0.00     0.275 HD
ENDBRANCH  86  87
BRANCH  86  91
ATOM     91  CB  TYR A   1       5.487 -18.296   8.185  1.00  0.00     0.081 C 
BRANCH  91  92
ATOM     92  CG  TYR A   1       6.677 -17.364   8.039  1.00  0.00    -0.056 A 
ATOM     93  CD2 TYR A   1       7.933 -17.899   7.672  1.00  0.00     0.010 A 
ATOM     94  CE2 TYR A   1       9.052 -17.054   7.561  1.00  0.00     0.037 A 
ATOM     95  CZ  TYR A   1       8.917 -15.669   7.805  1.00  0.00     0.065 A 
ATOM     96  CE1 TYR A   1       7.659 -15.130   8.135  1.00  0.00     0.037 A 
ATOM     97  CD1 TYR A   1       6.531 -15.973   8.252  1.00  0.00     0.010 A 
BRANCH  95  98
ATOM     98  OH  TYR A   1       9.992 -14.851   7.717  1.00  0.00    -0.361 OA
ATOM     99  HH  TYR A   1      10.435 -14.754   8.561  1.00  0.00     0.217 HD
ENDBRANCH  95  98
ENDBRANCH  91  92
ENDBRANCH  86  91
ENDBRANCH  84  86
ENDBRANCH  77  82
ENDBRANCH  73  77
ENDBRANCH  68  70
ENDBRANCH  65  66
BRANCH  65 100
ATOM    100  CB  GLU A   4      -5.126 -18.904   8.923  1.00  0.00     0.045 C 
BRANCH 100 101
ATOM    101  CG  GLU A   4      -4.117 -19.341   7.848  1.00  0.00     0.116 C 
BRANCH 101 102
ATOM    102  CD  GLU A   4      -3.855 -20.856   7.896  1.00  0.00     0.172 C 
ATOM    103  OE2 GLU A   4      -4.803 -21.588   7.534  1.00  0.00    -0.648 OA
ATOM    104  OE1 GLU A   4      -2.890 -21.246   8.601  1.00  0.00    -0.648 OA
ENDBRANCH 101 102
ENDBRANCH 100 101
ENDBRANCH  65 100
ENDBRANCH  63  65
ENDBRANCH  60  61
BRANCH  60 105
ATOM    105  CB  TYR A   5      -9.128 -14.653  10.455  1.00  0.00     0.073 C 
BRANCH 105 106
ATOM    106  CG  TYR A   5      -8.115 -13.631   9.949  1.00  0.00    -0.056 A 
ATOM    107  CD1 TYR A   5      -7.105 -13.130  10.806  1.00  0.00     0.010 A 
ATOM    108  CE1 TYR A   5      -6.080 -12.306  10.281  1.00  0.00     0.037 A 
ATOM    109  CZ  TYR A   5      -6.072 -11.977   8.913  1.00  0.00     0.065 A 
ATOM    110  CE2 TYR A   5      -7.095 -12.451   8.064  1.00  0.00     0.037 A 
ATOM    111  CD2 TYR A   5      -8.108 -13.282   8.579  1.00  0.00     0.010 A 
BRANCH 109 112
ATOM    112  OH  TYR A   5      -5.078 -11.213   8.405  1.00  0.00    -0.361 OA
ATOM    113  HH  TYR A   5      -5.457 -10.508   7.876  1.00  0.00     0.217 HD
ENDBRANCH 109 112
ENDBRANCH 105 106
ENDBRANCH  60 105
ENDBRANCH   1  60
TORSDOF 38
ENDMDL
MODEL 4
REMARK VINA RESULT:      -2.6      3.811      8.880
REMARK WARNING: 32 MAX_TORS EXCEEDED!!!
REMARK  38 active torsions:
REMARK  status: ('A' for Active; 'I' for Inactive)
REMARK    1  A    between atoms: N_1  and  CA_2 
REMARK    2  A    between atoms: CA_2  and  CB_5 
REMARK    3  A    between atoms: CA_2  and  C_3 
REMARK       I    between atoms: C_3  and  N_17 
REMARK    4  A    between atoms: CB_5  and  CG_6 
REMARK    5  A    between atoms: CZ_10  and  OH_11 
REMARK    6  A    between atoms: N_17  and  CA_18 
REMARK    7  A    between atoms: CA_18  and  CB_21 
REMARK    8  A    between atoms: CA_18  and  C_19 
REMARK       I    between atoms: C_19  and  N_26 
REMARK    9  A    between atoms: CB_21  and  CG_22 
REMARK   10  A    between atoms: CA_27  and  C_28 
REMARK       I    between atoms: C_28  and  N_33 
REMARK   11  A    between atoms: N_33  and  CA_34 
REMARK   12  A    between atoms: CA_34  and  C_35 
REMARK   13  A    between atoms: CA_34  and  CB_37 
REMARK       I    between atoms: C_35  and  N_43 
REMARK   14  A    between atoms: CB_37  and  CG_38 
REMARK   15  A    between atoms: CG_38  and  CD_39 
REMARK   16  A    between atoms: N_43  and  CA_44 
REMARK   17  A    between atoms: CA_44  and  CB_47 
REMARK   18  A    between atoms: CA_44  and  C_45 
REMARK       I    between atoms: C_45  and  N_57 
REMARK   19  A    between atoms: CB_47  and  CG_48 
REMARK   20  A    between atoms: CZ_52  and  OH_53 
REMARK   21  A    between atoms: N_57  and  CA_58 
REMARK   22  A    between atoms: CA_58  and  CB_61 
REMARK   23  A    between atoms: CA_58  and  C_59 
REMARK       I    between atoms: C_59  and  N_74 
REMARK   24  A    between atoms: CB_61  and  CG_62 
REMARK   25  A    between atoms: CG_62  and  CD_63 
REMARK   26  A    between atoms: CD_63  and  NE_64 
REMARK       I    between atoms: NE_64  and  CZ_65 
REMARK       I    between atoms: CZ_65  and  NH2_66 
REMARK   27  A    between atoms: N_74  and  CA_75 
REMARK   28  A    between atoms: CA_75  and  CB_78 
REMARK   29  A    between atoms: CA_75  and  C_76 
REMARK       I    between atoms: C_76  and  N_85 
REMARK   30  A    between atoms: CB_78  and  CG_79 
REMARK       I    between atoms: CG_79  and  ND2_80 
REMARK   31  A    between atoms: N_85  and  CA_86 
REMARK   32  A    between atoms: CA_86  and  CB_89 
REMARK   33  A    between atoms: CA_86  and  C_87 
REMARK       I    between atoms: C_87  and  N_97 
REMARK   34  A    between atoms: CB_89  and  CG_90 
REMARK   35  A    between atoms: N_97  and  CA_98 
REMARK   36  A    between atoms: CA_98  and  C_99 
REMARK   37  A    between atoms: CA_98  and  CB_102 
REMARK   38  A    between atoms: CB_102  and  CG_103 
ROOT
ATOM      1  C   TYR A   5      -6.668 -14.028   8.492  1.00  0.00     0.241 C 
ATOM      2  O   TYR A   5      -6.640 -14.232   7.281  1.00  0.00    -0.271 OA
ATOM      3  N   ARG A   6      -7.771 -14.280   9.218  1.00  0.00    -0.346 N 
ATOM      4  H   ARG A   6      -7.722 -14.106  10.219  1.00  0.00     0.163 HD
ENDROOT
BRANCH   3   5
ATOM      5  CA  ARG A   6      -9.015 -14.851   8.657  1.00  0.00     0.176 C 
BRANCH   5   6
ATOM      6  CB  ARG A   6      -9.304 -14.178   7.300  1.00  0.00     0.036 C 
BRANCH   6   7
ATOM      7  CG  ARG A   6     -10.542 -13.252   7.331  1.00  0.00     0.023 C 
BRANCH   7   8
ATOM      8  CD  ARG A   6     -10.579 -12.321   8.554  1.00  0.00     0.138 C 
BRANCH   8   9
ATOM      9  NE  ARG A   6     -11.935 -11.783   8.801  1.00  0.00    -0.227 N 
ATOM     10  HE  ARG A   6     -12.655 -12.467   8.945  1.00  0.00     0.177 HD
ATOM     11  CZ  ARG A   6     -12.289 -10.518   8.962  1.00  0.00     0.665 C 
ATOM     12  NH2 ARG A   6     -13.508 -10.236   9.300  1.00  0.00    -0.235 N 
ATOM     13  NH1 ARG A   6     -11.472  -9.513   8.815  1.00  0.00    -0.235 N 
ATOM     14 1HH2 ARG A   6     -14.061 -10.974   9.693  1.00  0.00     0.174 HD
ATOM     15 2HH2 ARG A   6     -13.665  -9.336   9.722  1.00  0.00     0.174 HD
ATOM     16 1HH1 ARG A   6     -10.485  -9.697   8.772  1.00  0.00     0.174 HD
ATOM     17 2HH1 ARG A   6     -11.787  -8.580   9.007  1.00  0.00     0.174 HD
ENDBRANCH   8   9
ENDBRANCH   7   8
ENDBRANCH   6   7
ENDBRANCH   5   6
BRANCH   5  18
ATOM     18  C   ARG A   6      -8.995 -16.391   8.526  1.00  0.00     0.241 C 
ATOM     19  N   ASN A   7      -9.885 -17.126   9.208  1.00  0.00    -0.346 N 
ATOM     20  H   ASN A   7     -10.623 -16.649   9.710  1.00  0.00     0.163 HD
ATOM     21  O   ARG A   6      -8.084 -16.915   7.898  1.00  0.00    -0.271 OA
BRANCH  19  22
ATOM     22  CA  ASN A   7      -9.976 -18.591   9.047  1.00  0.00     0.185 C 
BRANCH  22  23
ATOM     23  CB  ASN A   7      -9.749 -19.311  10.389  1.00  0.00     0.137 C 
BRANCH  23  24
ATOM     24  CG  ASN A   7      -8.323 -19.497  10.866  1.00  0.00     0.217 C 
ATOM     25  ND2 ASN A   7      -7.876 -20.734  10.817  1.00  0.00    -0.370 N 
ATOM     26 2HD2 ASN A   7      -8.533 -21.500  10.682  1.00  0.00     0.159 HD
ATOM     27 1HD2 ASN A   7      -6.921 -20.894  11.053  1.00  0.00     0.159 HD
ATOM     28  OD1 ASN A   7      -7.536 -18.570  11.038  1.00  0.00    -0.274 OA
ENDBRANCH  23  24
ENDBRANCH  22  23
BRANCH  22  29
ATOM     29  C   ASN A   7     -11.328 -19.063   8.465  1.00  0.00     0.241 C 
ATOM     30  N   PHE A   8     -12.331 -19.297   9.324  1.00  0.00    -0.346 N 
ATOM     31  H   PHE A   8     -12.141 -19.209  10.317  1.00  0.00     0.163 HD
ATOM     32  O   ASN A   7     -11.403 -19.336   7.268  1.00  0.00    -0.271 OA
BRANCH  30  33
ATOM     33  CA  PHE A   8     -13.700 -19.652   8.921  1.00  0.00     0.180 C 
BRANCH  33  34
ATOM     34  CB  PHE A   8     -14.229 -20.684   9.940  1.00  0.00     0.073 C 
BRANCH  34  35
ATOM     35  CG  PHE A   8     -13.750 -22.107   9.707  1.00  0.00    -0.056 A 
ATOM     36  CD1 PHE A   8     -14.462 -22.960   8.842  1.00  0.00     0.007 A 
ATOM     37  CE1 PHE A   8     -14.095 -24.314   8.731  1.00  0.00     0.001 A 
ATOM     38  CZ  PHE A   8     -13.016 -24.815   9.481  1.00  0.00     0.000 A 
ATOM     39  CE2 PHE A   8     -12.284 -23.956  10.319  1.00  0.00     0.001 A 
ATOM     40  CD2 PHE A   8     -12.647 -22.602  10.426  1.00  0.00     0.007 A 
ENDBRANCH  34  35
ENDBRANCH  33  34
BRANCH  33  41
ATOM     41  C   PHE A   8     -14.632 -18.422   8.785  1.00  0.00     0.241 C 
ATOM     42  N   TRP A   9     -14.094 -17.221   9.048  1.00  0.00    -0.344 N 
ATOM     43  H   TRP A   9     -13.117 -17.199   9.300  1.00  0.00     0.163 HD
ATOM     44  O   PHE A   8     -15.819 -18.588   8.497  1.00  0.00    -0.271 OA
BRANCH  42  45
ATOM     45  CA  TRP A   9     -14.790 -15.922   9.064  1.00  0.00     0.190 C 
BRANCH  45  46
ATOM     46  C   TRP A   9     -13.865 -14.685   9.070  1.00  0.00     0.197 C 
ATOM     47  OXT TRP A   9     -13.906 -13.938   8.059  1.00  0.00    -0.646 OA
ATOM     48  O   TRP A   9     -12.901 -14.720   9.865  1.00  0.00    -0.646 OA
ENDBRANCH  45  46
BRANCH  45  49
ATOM     49  CB  TRP A   9     -15.726 -15.919  10.282  1.00  0.00     0.077 C 
BRANCH  49  50
ATOM     50  CG  TRP A   9     -16.990 -15.149  10.076  1.00  0.00    -0.028 A 
ATOM     51  CD1 TRP A   9     -17.172 -13.879  10.491  1.00  0.00     0.096 A 
ATOM     52  NE1 TRP A   9     -18.370 -13.394  10.011  1.00  0.00    -0.365 N 
ATOM     53  HE1 TRP A   9     -18.597 -12.415  10.039  1.00  0.00     0.165 HD
ATOM     54  CE2 TRP A   9     -18.993 -14.317   9.201  1.00  0.00     0.042 A 
ATOM     55  CD2 TRP A   9     -18.134 -15.456   9.222  1.00  0.00    -0.002 A 
ATOM     56  CZ2 TRP A   9     -20.155 -14.260   8.420  1.00  0.00     0.030 A 
ATOM     57  CE3 TRP A   9     -18.500 -16.547   8.401  1.00  0.00     0.014 A 
ATOM     58  CZ3 TRP A   9     -19.656 -16.494   7.597  1.00  0.00     0.001 A 
ATOM     59  CH2 TRP A   9     -20.484 -15.356   7.606  1.00  0.00     0.002 A 
ENDBRANCH  49  50
ENDBRANCH  45  49
ENDBRANCH  42  45
ENDBRANCH  33  41
ENDBRANCH  30  33
ENDBRANCH  22  29
ENDBRANCH  19  22
ENDBRANCH   5  18
ENDBRANCH   3   5
BRANCH   1  60
ATOM     60  CA  TYR A   5      -5.533 -13.206   9.129  1.00  0.00     0.180 C 
BRANCH  60  61
ATOM     61  N   TYR A   5      -4.386 -14.041   9.504  1.00  0.00    -0.346 N 
ATOM     62  H   TYR A   5      -3.603 -14.094   8.870  1.00  0.00     0.163 HD
ATOM     63  C   GLU A   4      -4.385 -14.817  10.601  1.00  0.00     0.241 C 
ATOM     64  O   GLU A   4      -5.389 -14.927  11.298  1.00  0.00    -0.271 OA
BRANCH  63  65
ATOM     65  CA  GLU A   4      -3.220 -15.803  10.771  1.00  0.00     0.177 C 
BRANCH  65  66
ATOM     66  N   GLU A   4      -3.267 -16.865   9.750  1.00  0.00    -0.346 N 
ATOM     67  H   GLU A   4      -3.108 -16.581   8.792  1.00  0.00     0.163 HD
ATOM     68  C   PRO A   3      -3.775 -18.087   9.937  1.00  0.00     0.241 C 
ATOM     69  O   PRO A   3      -4.207 -18.468  11.012  1.00  0.00    -0.271 OA
BRANCH  68  70
ATOM     70  CA  PRO A   3      -3.791 -19.059   8.749  1.00  0.00     0.179 C 
ATOM     71  N   PRO A   3      -2.871 -20.214   8.832  1.00  0.00    -0.337 N 
ATOM     72  CD  PRO A   3      -3.631 -21.440   8.596  1.00  0.00     0.127 C 
ATOM     73  C   ASP A   2      -1.519 -20.081   8.863  1.00  0.00     0.243 C 
ATOM     74  CG  PRO A   3      -4.915 -20.995   7.899  1.00  0.00     0.022 C 
ATOM     75  CB  PRO A   3      -5.196 -19.652   8.565  1.00  0.00     0.037 C 
ATOM     76  O   ASP A   2      -1.049 -18.954   9.041  1.00  0.00    -0.271 OA
BRANCH  73  77
ATOM     77  CA  ASP A   2      -0.570 -21.296   9.158  1.00  0.00     0.186 C 
BRANCH  77  78
ATOM     78  CB  ASP A   2       0.932 -20.973   9.114  1.00  0.00     0.147 C 
BRANCH  78  79
ATOM     79  CG  ASP A   2       1.693 -21.739  10.183  1.00  0.00     0.175 C 
ATOM     80  OD2 ASP A   2       1.234 -21.615  11.343  1.00  0.00    -0.648 OA
ATOM     81  OD1 ASP A   2       2.446 -22.635   9.780  1.00  0.00    -0.648 OA
ENDBRANCH  78  79
ENDBRANCH  77  78
BRANCH  77  82
ATOM     82  N   ASP A   2      -0.780 -22.534   8.365  1.00  0.00    -0.345 N 
ATOM     83  H   ASP A   2      -0.431 -22.472   7.420  1.00  0.00     0.163 HD
ATOM     84  C   TYR A   1      -1.010 -23.741   8.910  1.00  0.00     0.249 C 
ATOM     85  O   TYR A   1      -1.309 -23.875  10.073  1.00  0.00    -0.271 OA
BRANCH  84  86
ATOM     86  CA  TYR A   1      -1.262 -24.953   8.038  1.00  0.00     0.278 C 
BRANCH  86  87
ATOM     87  N   TYR A   1      -0.016 -25.448   7.430  1.00  0.00    -0.066 N 
ATOM     88  H2  TYR A   1      -0.221 -25.997   6.608  1.00  0.00     0.275 HD
ATOM     89  H1  TYR A   1       0.476 -26.018   8.104  1.00  0.00     0.275 HD
ATOM     90  H3  TYR A   1       0.566 -24.659   7.169  1.00  0.00     0.275 HD
ENDBRANCH  86  87
BRANCH  86  91
ATOM     91  CB  TYR A   1      -2.092 -26.058   8.690  1.00  0.00     0.081 C 
BRANCH  91  92
ATOM     92  CG  TYR A   1      -3.558 -25.976   8.302  1.00  0.00    -0.056 A 
ATOM     93  CD2 TYR A   1      -4.027 -24.836   7.610  1.00  0.00     0.010 A 
ATOM     94  CE2 TYR A   1      -5.388 -24.732   7.268  1.00  0.00     0.037 A 
ATOM     95  CZ  TYR A   1      -6.282 -25.772   7.605  1.00  0.00     0.065 A 
ATOM     96  CE1 TYR A   1      -5.809 -26.924   8.262  1.00  0.00     0.037 A 
ATOM     97  CD1 TYR A   1      -4.444 -27.034   8.612  1.00  0.00     0.010 A 
BRANCH  95  98
ATOM     98  OH  TYR A   1      -7.596 -25.671   7.295  1.00  0.00    -0.361 OA
ATOM     99  HH  TYR A   1      -7.726 -25.335   6.408  1.00  0.00     0.217 HD
ENDBRANCH  95  98
ENDBRANCH  91  92
ENDBRANCH  86  91
ENDBRANCH  84  86
ENDBRANCH  77  82
ENDBRANCH  73  77
ENDBRANCH  68  70
ENDBRANCH  65  66
BRANCH  65 100
ATOM    100  CB  GLU A   4      -1.860 -15.076  10.680  1.00  0.00     0.045 C 
BRANCH 100 101
ATOM    101  CG  GLU A   4      -0.620 -15.962  10.878  1.00  0.00     0.116 C 
BRANCH 101 102
ATOM    102  CD  GLU A   4       0.205 -16.085   9.586  1.00  0.00     0.172 C 
ATOM    103  OE2 GLU A   4       1.379 -16.495   9.721  1.00  0.00    -0.648 OA
ATOM    104  OE1 GLU A   4      -0.214 -15.456   8.581  1.00  0.00    -0.648 OA
ENDBRANCH 101 102
ENDBRANCH 100 101
ENDBRANCH  65 100
ENDBRANCH  63  65
ENDBRANCH  60  61
BRANCH  60 105
ATOM    105  CB  TYR A   5      -5.084 -12.049   8.216  1.00  0.00     0.073 C 
BRANCH 105 106
ATOM    106  CG  TYR A   5      -5.711 -10.686   8.493  1.00  0.00    -0.056 A 
ATOM    107  CD1 TYR A   5      -7.104 -10.563   8.711  1.00  0.00     0.010 A 
ATOM    108  CE1 TYR A   5      -7.646  -9.321   9.123  1.00  0.00     0.037 A 
ATOM    109  CZ  TYR A   5      -6.802  -8.210   9.303  1.00  0.00     0.065 A 
ATOM    110  CE2 TYR A   5      -5.417  -8.324   9.056  1.00  0.00     0.037 A 
ATOM    111  CD2 TYR A   5      -4.872  -9.560   8.660  1.00  0.00     0.010 A 
BRANCH 109 112
ATOM    112  OH  TYR A   5      -7.314  -7.030   9.723  1.00  0.00    -0.361 OA
ATOM    113  HH  TYR A   5      -6.663  -6.572  10.258  1.00  0.00     0.217 HD
ENDBRANCH 109 112
ENDBRANCH 105 106
ENDBRANCH  60 105
ENDBRANCH   1  60
TORSDOF 38
ENDMDL
MODEL 5
REMARK VINA RESULT:      -2.2      4.170      9.000
REMARK WARNING: 32 MAX_TORS EXCEEDED!!!
REMARK  38 active torsions:
REMARK  status: ('A' for Active; 'I' for Inactive)
REMARK    1  A    between atoms: N_1  and  CA_2 
REMARK    2  A    between atoms: CA_2  and  CB_5 
REMARK    3  A    between atoms: CA_2  and  C_3 
REMARK       I    between atoms: C_3  and  N_17 
REMARK    4  A    between atoms: CB_5  and  CG_6 
REMARK    5  A    between atoms: CZ_10  and  OH_11 
REMARK    6  A    between atoms: N_17  and  CA_18 
REMARK    7  A    between atoms: CA_18  and  CB_21 
REMARK    8  A    between atoms: CA_18  and  C_19 
REMARK       I    between atoms: C_19  and  N_26 
REMARK    9  A    between atoms: CB_21  and  CG_22 
REMARK   10  A    between atoms: CA_27  and  C_28 
REMARK       I    between atoms: C_28  and  N_33 
REMARK   11  A    between atoms: N_33  and  CA_34 
REMARK   12  A    between atoms: CA_34  and  C_35 
REMARK   13  A    between atoms: CA_34  and  CB_37 
REMARK       I    between atoms: C_35  and  N_43 
REMARK   14  A    between atoms: CB_37  and  CG_38 
REMARK   15  A    between atoms: CG_38  and  CD_39 
REMARK   16  A    between atoms: N_43  and  CA_44 
REMARK   17  A    between atoms: CA_44  and  CB_47 
REMARK   18  A    between atoms: CA_44  and  C_45 
REMARK       I    between atoms: C_45  and  N_57 
REMARK   19  A    between atoms: CB_47  and  CG_48 
REMARK   20  A    between atoms: CZ_52  and  OH_53 
REMARK   21  A    between atoms: N_57  and  CA_58 
REMARK   22  A    between atoms: CA_58  and  CB_61 
REMARK   23  A    between atoms: CA_58  and  C_59 
REMARK       I    between atoms: C_59  and  N_74 
REMARK   24  A    between atoms: CB_61  and  CG_62 
REMARK   25  A    between atoms: CG_62  and  CD_63 
REMARK   26  A    between atoms: CD_63  and  NE_64 
REMARK       I    between atoms: NE_64  and  CZ_65 
REMARK       I    between atoms: CZ_65  and  NH2_66 
REMARK   27  A    between atoms: N_74  and  CA_75 
REMARK   28  A    between atoms: CA_75  and  CB_78 
REMARK   29  A    between atoms: CA_75  and  C_76 
REMARK       I    between atoms: C_76  and  N_85 
REMARK   30  A    between atoms: CB_78  and  CG_79 
REMARK       I    between atoms: CG_79  and  ND2_80 
REMARK   31  A    between atoms: N_85  and  CA_86 
REMARK   32  A    between atoms: CA_86  and  CB_89 
REMARK   33  A    between atoms: CA_86  and  C_87 
REMARK       I    between atoms: C_87  and  N_97 
REMARK   34  A    between atoms: CB_89  and  CG_90 
REMARK   35  A    between atoms: N_97  and  CA_98 
REMARK   36  A    between atoms: CA_98  and  C_99 
REMARK   37  A    between atoms: CA_98  and  CB_102 
REMARK   38  A    between atoms: CB_102  and  CG_103 
ROOT
ATOM      1  C   TYR A   5      -8.099 -17.178   8.572  1.00  0.00     0.241 C 
ATOM      2  O   TYR A   5      -8.471 -17.159   7.401  1.00  0.00    -0.271 OA
ATOM      3  N   ARG A   6      -8.720 -17.939   9.491  1.00  0.00    -0.346 N 
ATOM      4  H   ARG A   6      -8.352 -17.922  10.438  1.00  0.00     0.163 HD
ENDROOT
BRANCH   3   5
ATOM      5  CA  ARG A   6      -9.856 -18.837   9.186  1.00  0.00     0.176 C 
BRANCH   5   6
ATOM      6  CB  ARG A   6      -9.704 -20.131  10.011  1.00  0.00     0.036 C 
BRANCH   6   7
ATOM      7  CG  ARG A   6     -10.039 -21.409   9.208  1.00  0.00     0.023 C 
BRANCH   7   8
ATOM      8  CD  ARG A   6      -9.892 -22.702  10.025  1.00  0.00     0.138 C 
BRANCH   8   9
ATOM      9  NE  ARG A   6     -10.296 -23.897   9.251  1.00  0.00    -0.227 N 
ATOM     10  HE  ARG A   6      -9.956 -23.939   8.307  1.00  0.00     0.177 HD
ATOM     11  CZ  ARG A   6     -10.954 -24.961   9.685  1.00  0.00     0.665 C 
ATOM     12  NH2 ARG A   6     -11.111 -25.977   8.896  1.00  0.00    -0.235 N 
ATOM     13  NH1 ARG A   6     -11.454 -25.063  10.883  1.00  0.00    -0.235 N 
ATOM     14 1HH2 ARG A   6     -10.505 -26.042   8.100  1.00  0.00     0.174 HD
ATOM     15 2HH2 ARG A   6     -11.313 -26.862   9.331  1.00  0.00     0.174 HD
ATOM     16 1HH1 ARG A   6     -11.168 -24.402  11.583  1.00  0.00     0.174 HD
ATOM     17 2HH1 ARG A   6     -11.894 -25.918  11.170  1.00  0.00     0.174 HD
ENDBRANCH   8   9
ENDBRANCH   7   8
ENDBRANCH   6   7
ENDBRANCH   5   6
BRANCH   5  18
ATOM     18  C   ARG A   6     -11.242 -18.191   9.405  1.00  0.00     0.241 C 
ATOM     19  N   ASN A   7     -12.038 -18.645  10.383  1.00  0.00    -0.346 N 
ATOM     20  H   ASN A   7     -11.668 -19.331  11.029  1.00  0.00     0.163 HD
ATOM     21  O   ARG A   6     -11.636 -17.359   8.599  1.00  0.00    -0.271 OA
BRANCH  19  22
ATOM     22  CA  ASN A   7     -13.329 -18.004  10.702  1.00  0.00     0.185 C 
BRANCH  22  23
ATOM     23  CB  ASN A   7     -13.344 -16.533  10.244  1.00  0.00     0.137 C 
BRANCH  23  24
ATOM     24  CG  ASN A   7     -14.452 -15.637  10.759  1.00  0.00     0.217 C 
ATOM     25  ND2 ASN A   7     -14.470 -14.424  10.250  1.00  0.00    -0.370 N 
ATOM     26 2HD2 ASN A   7     -13.661 -14.085   9.733  1.00  0.00     0.159 HD
ATOM     27 1HD2 ASN A   7     -15.223 -13.823  10.506  1.00  0.00     0.159 HD
ATOM     28  OD1 ASN A   7     -15.421 -16.048  11.392  1.00  0.00    -0.274 OA
ENDBRANCH  23  24
ENDBRANCH  22  23
BRANCH  22  29
ATOM     29  C   ASN A   7     -14.545 -18.721  10.074  1.00  0.00     0.241 C 
ATOM     30  N   PHE A   8     -15.508 -19.158  10.899  1.00  0.00    -0.346 N 
ATOM     31  H   PHE A   8     -15.368 -19.049  11.898  1.00  0.00     0.163 HD
ATOM     32  O   ASN A   7     -14.530 -18.988   8.873  1.00  0.00    -0.271 OA
BRANCH  30  33
ATOM     33  CA  PHE A   8     -16.769 -19.767  10.450  1.00  0.00     0.180 C 
BRANCH  33  34
ATOM     34  CB  PHE A   8     -17.357 -18.855   9.352  1.00  0.00     0.073 C 
BRANCH  34  35
ATOM     35  CG  PHE A   8     -18.663 -18.176   9.726  1.00  0.00    -0.056 A 
ATOM     36  CD1 PHE A   8     -19.763 -18.944  10.155  1.00  0.00     0.007 A 
ATOM     37  CE1 PHE A   8     -21.009 -18.328  10.372  1.00  0.00     0.001 A 
ATOM     38  CZ  PHE A   8     -21.157 -16.945  10.164  1.00  0.00     0.000 A 
ATOM     39  CE2 PHE A   8     -20.051 -16.172   9.768  1.00  0.00     0.001 A 
ATOM     40  CD2 PHE A   8     -18.804 -16.786   9.556  1.00  0.00     0.007 A 
ENDBRANCH  34  35
ENDBRANCH  33  34
BRANCH  33  41
ATOM     41  C   PHE A   8     -16.600 -21.232   9.975  1.00  0.00     0.241 C 
ATOM     42  N   TRP A   9     -16.364 -22.154  10.922  1.00  0.00    -0.344 N 
ATOM     43  H   TRP A   9     -16.328 -21.834  11.877  1.00  0.00     0.163 HD
ATOM     44  O   PHE A   8     -16.638 -21.489   8.770  1.00  0.00    -0.271 OA
BRANCH  42  45
ATOM     45  CA  TRP A   9     -16.093 -23.588  10.715  1.00  0.00     0.190 C 
BRANCH  45  46
ATOM     46  C   TRP A   9     -14.611 -23.943  10.465  1.00  0.00     0.197 C 
ATOM     47  OXT TRP A   9     -13.797 -22.986  10.409  1.00  0.00    -0.646 OA
ATOM     48  O   TRP A   9     -14.389 -25.068   9.969  1.00  0.00    -0.646 OA
ENDBRANCH  45  46
BRANCH  45  49
ATOM     49  CB  TRP A   9     -16.978 -24.058   9.550  1.00  0.00     0.077 C 
BRANCH  49  50
ATOM     50  CG  TRP A   9     -18.314 -24.578   9.972  1.00  0.00    -0.028 A 
ATOM     51  CD1 TRP A   9     -18.500 -25.778  10.558  1.00  0.00     0.096 A 
ATOM     52  NE1 TRP A   9     -19.808 -25.900  10.976  1.00  0.00    -0.365 N 
ATOM     53  HE1 TRP A   9     -20.101 -26.627  11.605  1.00  0.00     0.165 HD
ATOM     54  CE2 TRP A   9     -20.518 -24.745  10.733  1.00  0.00     0.042 A 
ATOM     55  CD2 TRP A   9     -19.588 -23.876  10.088  1.00  0.00    -0.002 A 
ATOM     56  CZ2 TRP A   9     -21.823 -24.351  11.056  1.00  0.00     0.030 A 
ATOM     57  CE3 TRP A   9     -20.038 -22.571   9.787  1.00  0.00     0.014 A 
ATOM     58  CZ3 TRP A   9     -21.342 -22.156  10.124  1.00  0.00     0.001 A 
ATOM     59  CH2 TRP A   9     -22.235 -23.042  10.754  1.00  0.00     0.002 A 
ENDBRANCH  49  50
ENDBRANCH  45  49
ENDBRANCH  42  45
ENDBRANCH  33  41
ENDBRANCH  30  33
ENDBRANCH  22  29
ENDBRANCH  19  22
ENDBRANCH   5  18
ENDBRANCH   3   5
BRANCH   1  60
ATOM     60  CA  TYR A   5      -7.105 -16.104   9.050  1.00  0.00     0.180 C 
BRANCH  60  61
ATOM     61  N   TYR A   5      -6.013 -16.674   9.846  1.00  0.00    -0.346 N 
ATOM     62  H   TYR A   5      -5.980 -16.469  10.834  1.00  0.00     0.163 HD
ATOM     63  C   GLU A   4      -5.001 -17.365   9.295  1.00  0.00     0.241 C 
ATOM     64  O   GLU A   4      -4.902 -17.475   8.076  1.00  0.00    -0.271 OA
BRANCH  63  65
ATOM     65  CA  GLU A   4      -3.812 -17.724  10.198  1.00  0.00     0.177 C 
BRANCH  65  66
ATOM     66  N   GLU A   4      -2.765 -18.435   9.443  1.00  0.00    -0.346 N 
ATOM     67  H   GLU A   4      -2.695 -18.225   8.456  1.00  0.00     0.163 HD
ATOM     68  C   PRO A   3      -2.108 -19.516   9.875  1.00  0.00     0.241 C 
ATOM     69  O   PRO A   3      -2.276 -19.996  10.983  1.00  0.00    -0.271 OA
BRANCH  68  70
ATOM     70  CA  PRO A   3      -1.078 -20.165   8.939  1.00  0.00     0.179 C 
ATOM     71  N   PRO A   3       0.344 -19.866   9.216  1.00  0.00    -0.337 N 
ATOM     72  CD  PRO A   3       1.080 -21.124   9.313  1.00  0.00     0.127 C 
ATOM     73  C   ASP A   2       0.867 -18.615   9.125  1.00  0.00     0.243 C 
ATOM     74  CG  PRO A   3       0.201 -22.165   8.622  1.00  0.00     0.022 C 
ATOM     75  CB  PRO A   3      -1.203 -21.695   8.988  1.00  0.00     0.037 C 
ATOM     76  O   ASP A   2       0.087 -17.665   9.014  1.00  0.00    -0.271 OA
BRANCH  73  77
ATOM     77  CA  ASP A   2       2.319 -18.283   9.620  1.00  0.00     0.186 C 
BRANCH  77  78
ATOM     78  CB  ASP A   2       2.694 -16.792   9.580  1.00  0.00     0.147 C 
BRANCH  78  79
ATOM     79  CG  ASP A   2       3.905 -16.552   8.694  1.00  0.00     0.175 C 
ATOM     80  OD2 ASP A   2       5.008 -16.613   9.288  1.00  0.00    -0.648 OA
ATOM     81  OD1 ASP A   2       3.718 -16.650   7.476  1.00  0.00    -0.648 OA
ENDBRANCH  78  79
ENDBRANCH  77  78
BRANCH  77  82
ATOM     82  N   ASP A   2       3.440 -19.038   9.005  1.00  0.00    -0.345 N 
ATOM     83  H   ASP A   2       3.697 -18.704   8.089  1.00  0.00     0.163 HD
ATOM     84  C   TYR A   1       4.305 -19.792   9.704  1.00  0.00     0.249 C 
ATOM     85  O   TYR A   1       4.098 -20.115  10.850  1.00  0.00    -0.271 OA
BRANCH  84  86
ATOM     86  CA  TYR A   1       5.397 -20.574   9.004  1.00  0.00     0.278 C 
BRANCH  86  87
ATOM     87  N   TYR A   1       4.853 -21.746   8.299  1.00  0.00    -0.066 N 
ATOM     88  H2  TYR A   1       4.055 -21.480   7.741  1.00  0.00     0.275 HD
ATOM     89  H1  TYR A   1       4.573 -22.439   8.980  1.00  0.00     0.275 HD
ATOM     90  H3  TYR A   1       5.569 -22.138   7.697  1.00  0.00     0.275 HD
ENDBRANCH  86  87
BRANCH  86  91
ATOM     91  CB  TYR A   1       6.341 -19.738   8.141  1.00  0.00     0.081 C 
BRANCH  91  92
ATOM     92  CG  TYR A   1       7.791 -20.158   8.306  1.00  0.00    -0.056 A 
ATOM     93  CD2 TYR A   1       8.712 -19.885   7.269  1.00  0.00     0.010 A 
ATOM     94  CE2 TYR A   1      10.052 -20.293   7.394  1.00  0.00     0.037 A 
ATOM     95  CZ  TYR A   1      10.480 -20.964   8.561  1.00  0.00     0.065 A 
ATOM     96  CE1 TYR A   1       9.572 -21.204   9.610  1.00  0.00     0.037 A 
ATOM     97  CD1 TYR A   1       8.223 -20.800   9.490  1.00  0.00     0.010 A 
BRANCH  95  98
ATOM     98  OH  TYR A   1      11.764 -21.375   8.682  1.00  0.00    -0.361 OA
ATOM     99  HH  TYR A   1      12.381 -20.707   8.380  1.00  0.00     0.217 HD
ENDBRANCH  95  98
ENDBRANCH  91  92
ENDBRANCH  86  91
ENDBRANCH  84  86
ENDBRANCH  77  82
ENDBRANCH  73  77
ENDBRANCH  68  70
ENDBRANCH  65  66
BRANCH  65 100
ATOM    100  CB  GLU A   4      -3.202 -16.460  10.840  1.00  0.00     0.045 C 
BRANCH 100 101
ATOM    101  CG  GLU A   4      -2.895 -15.306   9.872  1.00  0.00     0.116 C 
BRANCH 101 102
ATOM    102  CD  GLU A   4      -1.779 -14.394  10.408  1.00  0.00     0.172 C 
ATOM    103  OE2 GLU A   4      -1.935 -13.167  10.217  1.00  0.00    -0.648 OA
ATOM    104  OE1 GLU A   4      -0.674 -14.935  10.663  1.00  0.00    -0.648 OA
ENDBRANCH 101 102
ENDBRANCH 100 101
ENDBRANCH  65 100
ENDBRANCH  63  65
ENDBRANCH  60  61
BRANCH  60 105
ATOM    105  CB  TYR A   5      -6.545 -15.282   7.873  1.00  0.00     0.073 C 
BRANCH 105 106
ATOM    106  CG  TYR A   5      -6.659 -13.765   7.993  1.00  0.00    -0.056 A 
ATOM    107  CD1 TYR A   5      -5.782 -12.916   7.278  1.00  0.00     0.010 A 
ATOM    108  CE1 TYR A   5      -6.000 -11.517   7.275  1.00  0.00     0.037 A 
ATOM    109  CZ  TYR A   5      -7.082 -10.972   7.992  1.00  0.00     0.065 A 
ATOM    110  CE2 TYR A   5      -7.940 -11.815   8.730  1.00  0.00     0.037 A 
ATOM    111  CD2 TYR A   5      -7.734 -13.208   8.724  1.00  0.00     0.010 A 
BRANCH 109 112
ATOM    112  OH  TYR A   5      -7.309  -9.639   7.967  1.00  0.00    -0.361 OA
ATOM    113  HH  TYR A   5      -7.430  -9.352   7.059  1.00  0.00     0.217 HD
ENDBRANCH 109 112
ENDBRANCH 105 106
ENDBRANCH  60 105
ENDBRANCH   1  60
TORSDOF 38
ENDMDL
MODEL 6
REMARK VINA RESULT:      -2.2      2.324      4.089
REMARK WARNING: 32 MAX_TORS EXCEEDED!!!
REMARK  38 active torsions:
REMARK  status: ('A' for Active; 'I' for Inactive)
REMARK    1  A    between atoms: N_1  and  CA_2 
REMARK    2  A    between atoms: CA_2  and  CB_5 
REMARK    3  A    between atoms: CA_2  and  C_3 
REMARK       I    between atoms: C_3  and  N_17 
REMARK    4  A    between atoms: CB_5  and  CG_6 
REMARK    5  A    between atoms: CZ_10  and  OH_11 
REMARK    6  A    between atoms: N_17  and  CA_18 
REMARK    7  A    between atoms: CA_18  and  CB_21 
REMARK    8  A    between atoms: CA_18  and  C_19 
REMARK       I    between atoms: C_19  and  N_26 
REMARK    9  A    between atoms: CB_21  and  CG_22 
REMARK   10  A    between atoms: CA_27  and  C_28 
REMARK       I    between atoms: C_28  and  N_33 
REMARK   11  A    between atoms: N_33  and  CA_34 
REMARK   12  A    between atoms: CA_34  and  C_35 
REMARK   13  A    between atoms: CA_34  and  CB_37 
REMARK       I    between atoms: C_35  and  N_43 
REMARK   14  A    between atoms: CB_37  and  CG_38 
REMARK   15  A    between atoms: CG_38  and  CD_39 
REMARK   16  A    between atoms: N_43  and  CA_44 
REMARK   17  A    between atoms: CA_44  and  CB_47 
REMARK   18  A    between atoms: CA_44  and  C_45 
REMARK       I    between atoms: C_45  and  N_57 
REMARK   19  A    between atoms: CB_47  and  CG_48 
REMARK   20  A    between atoms: CZ_52  and  OH_53 
REMARK   21  A    between atoms: N_57  and  CA_58 
REMARK   22  A    between atoms: CA_58  and  CB_61 
REMARK   23  A    between atoms: CA_58  and  C_59 
REMARK       I    between atoms: C_59  and  N_74 
REMARK   24  A    between atoms: CB_61  and  CG_62 
REMARK   25  A    between atoms: CG_62  and  CD_63 
REMARK   26  A    between atoms: CD_63  and  NE_64 
REMARK       I    between atoms: NE_64  and  CZ_65 
REMARK       I    between atoms: CZ_65  and  NH2_66 
REMARK   27  A    between atoms: N_74  and  CA_75 
REMARK   28  A    between atoms: CA_75  and  CB_78 
REMARK   29  A    between atoms: CA_75  and  C_76 
REMARK       I    between atoms: C_76  and  N_85 
REMARK   30  A    between atoms: CB_78  and  CG_79 
REMARK       I    between atoms: CG_79  and  ND2_80 
REMARK   31  A    between atoms: N_85  and  CA_86 
REMARK   32  A    between atoms: CA_86  and  CB_89 
REMARK   33  A    between atoms: CA_86  and  C_87 
REMARK       I    between atoms: C_87  and  N_97 
REMARK   34  A    between atoms: CB_89  and  CG_90 
REMARK   35  A    between atoms: N_97  and  CA_98 
REMARK   36  A    between atoms: CA_98  and  C_99 
REMARK   37  A    between atoms: CA_98  and  CB_102 
REMARK   38  A    between atoms: CB_102  and  CG_103 
ROOT
ATOM      1  C   TYR A   5      -8.230 -17.404  10.366  1.00  0.00     0.241 C 
ATOM      2  O   TYR A   5      -8.253 -18.529   9.872  1.00  0.00    -0.271 OA
ATOM      3  N   ARG A   6      -9.231 -16.530  10.160  1.00  0.00    -0.346 N 
ATOM      4  H   ARG A   6      -9.160 -15.622  10.611  1.00  0.00     0.163 HD
ENDROOT
BRANCH   3   5
ATOM      5  CA  ARG A   6     -10.447 -16.839   9.374  1.00  0.00     0.176 C 
BRANCH   5   6
ATOM      6  CB  ARG A   6     -11.517 -17.422  10.319  1.00  0.00     0.036 C 
BRANCH   6   7
ATOM      7  CG  ARG A   6     -12.795 -17.882   9.581  1.00  0.00     0.023 C 
BRANCH   7   8
ATOM      8  CD  ARG A   6     -13.307 -19.256  10.042  1.00  0.00     0.138 C 
BRANCH   8   9
ATOM      9  NE  ARG A   6     -12.210 -20.241  10.176  1.00  0.00    -0.227 N 
ATOM     10  HE  ARG A   6     -11.672 -20.180  11.021  1.00  0.00     0.177 HD
ATOM     11  CZ  ARG A   6     -11.925 -21.253   9.372  1.00  0.00     0.665 C 
ATOM     12  NH2 ARG A   6     -11.002 -22.096   9.713  1.00  0.00    -0.235 N 
ATOM     13  NH1 ARG A   6     -12.534 -21.473   8.241  1.00  0.00    -0.235 N 
ATOM     14 1HH2 ARG A   6     -10.732 -22.120  10.678  1.00  0.00     0.174 HD
ATOM     15 2HH2 ARG A   6     -11.028 -23.001   9.271  1.00  0.00     0.174 HD
ATOM     16 1HH1 ARG A   6     -13.388 -20.980   8.050  1.00  0.00     0.174 HD
ATOM     17 2HH1 ARG A   6     -12.310 -22.289   7.703  1.00  0.00     0.174 HD
ENDBRANCH   8   9
ENDBRANCH   7   8
ENDBRANCH   6   7
ENDBRANCH   5   6
BRANCH   5  18
ATOM     18  C   ARG A   6     -10.999 -15.637   8.575  1.00  0.00     0.241 C 
ATOM     19  N   ASN A   7     -11.692 -14.681   9.209  1.00  0.00    -0.346 N 
ATOM     20  H   ASN A   7     -11.745 -14.712  10.219  1.00  0.00     0.163 HD
ATOM     21  O   ARG A   6     -10.897 -15.647   7.355  1.00  0.00    -0.271 OA
BRANCH  19  22
ATOM     22  CA  ASN A   7     -12.158 -13.464   8.516  1.00  0.00     0.185 C 
BRANCH  22  23
ATOM     23  CB  ASN A   7     -13.632 -13.167   8.850  1.00  0.00     0.137 C 
BRANCH  23  24
ATOM     24  CG  ASN A   7     -13.967 -12.710  10.255  1.00  0.00     0.217 C 
ATOM     25  ND2 ASN A   7     -14.582 -13.604  10.999  1.00  0.00    -0.370 N 
ATOM     26 2HD2 ASN A   7     -14.982 -14.431  10.562  1.00  0.00     0.159 HD
ATOM     27 1HD2 ASN A   7     -14.759 -13.373  11.953  1.00  0.00     0.159 HD
ATOM     28  OD1 ASN A   7     -13.492 -11.704  10.776  1.00  0.00    -0.274 OA
ENDBRANCH  23  24
ENDBRANCH  22  23
BRANCH  22  29
ATOM     29  C   ASN A   7     -11.322 -12.208   8.849  1.00  0.00     0.241 C 
ATOM     30  N   PHE A   8     -11.645 -11.060   8.234  1.00  0.00    -0.346 N 
ATOM     31  H   PHE A   8     -12.383 -11.082   7.539  1.00  0.00     0.163 HD
ATOM     32  O   ASN A   7     -10.317 -12.324   9.550  1.00  0.00    -0.271 OA
BRANCH  30  33
ATOM     33  CA  PHE A   8     -11.013  -9.762   8.518  1.00  0.00     0.180 C 
BRANCH  33  34
ATOM     34  CB  PHE A   8     -10.189  -9.369   7.274  1.00  0.00     0.073 C 
BRANCH  34  35
ATOM     35  CG  PHE A   8      -8.812  -8.804   7.579  1.00  0.00    -0.056 A 
ATOM     36  CD1 PHE A   8      -7.657  -9.547   7.268  1.00  0.00     0.007 A 
ATOM     37  CE1 PHE A   8      -6.392  -9.083   7.671  1.00  0.00     0.001 A 
ATOM     38  CZ  PHE A   8      -6.279  -7.875   8.383  1.00  0.00     0.000 A 
ATOM     39  CE2 PHE A   8      -7.429  -7.116   8.666  1.00  0.00     0.001 A 
ATOM     40  CD2 PHE A   8      -8.692  -7.577   8.258  1.00  0.00     0.007 A 
ENDBRANCH  34  35
ENDBRANCH  33  34
BRANCH  33  41
ATOM     41  C   PHE A   8     -12.031  -8.668   8.926  1.00  0.00     0.241 C 
ATOM     42  N   TRP A   9     -12.733  -8.092   7.937  1.00  0.00    -0.344 N 
ATOM     43  H   TRP A   9     -12.562  -8.422   6.999  1.00  0.00     0.163 HD
ATOM     44  O   PHE A   8     -12.123  -8.335  10.109  1.00  0.00    -0.271 OA
BRANCH  42  45
ATOM     45  CA  TRP A   9     -13.695  -6.984   8.063  1.00  0.00     0.190 C 
BRANCH  45  46
ATOM     46  C   TRP A   9     -13.063  -5.579   8.165  1.00  0.00     0.197 C 
ATOM     47  OXT TRP A   9     -11.815  -5.503   8.020  1.00  0.00    -0.646 OA
ATOM     48  O   TRP A   9     -13.744  -4.707   8.746  1.00  0.00    -0.646 OA
ENDBRANCH  45  46
BRANCH  45  49
ATOM     49  CB  TRP A   9     -14.581  -7.282   9.283  1.00  0.00     0.077 C 
BRANCH  49  50
ATOM     50  CG  TRP A   9     -16.025  -7.481   8.952  1.00  0.00    -0.028 A 
ATOM     51  CD1 TRP A   9     -16.782  -6.563   8.318  1.00  0.00     0.096 A 
ATOM     52  NE1 TRP A   9     -18.015  -7.100   8.012  1.00  0.00    -0.365 N 
ATOM     53  HE1 TRP A   9     -18.646  -6.652   7.371  1.00  0.00     0.165 HD
ATOM     54  CE2 TRP A   9     -18.086  -8.425   8.381  1.00  0.00     0.042 A 
ATOM     55  CD2 TRP A   9     -16.825  -8.701   8.989  1.00  0.00    -0.002 A 
ATOM     56  CZ2 TRP A   9     -19.068  -9.407   8.197  1.00  0.00     0.030 A 
ATOM     57  CE3 TRP A   9     -16.593 -10.033   9.400  1.00  0.00     0.014 A 
ATOM     58  CZ3 TRP A   9     -17.566 -11.033   9.203  1.00  0.00     0.001 A 
ATOM     59  CH2 TRP A   9     -18.801 -10.724   8.606  1.00  0.00     0.002 A 
ENDBRANCH  49  50
ENDBRANCH  45  49
ENDBRANCH  42  45
ENDBRANCH  33  41
ENDBRANCH  30  33
ENDBRANCH  22  29
ENDBRANCH  19  22
ENDBRANCH   5  18
ENDBRANCH   3   5
BRANCH   1  60
ATOM     60  CA  TYR A   5      -6.915 -16.892  10.980  1.00  0.00     0.180 C 
BRANCH  60  61
ATOM     61  N   TYR A   5      -5.768 -17.101  10.089  1.00  0.00    -0.346 N 
ATOM     62  H   TYR A   5      -5.705 -16.546   9.248  1.00  0.00     0.163 HD
ATOM     63  C   GLU A   4      -4.862 -18.072  10.293  1.00  0.00     0.241 C 
ATOM     64  O   GLU A   4      -5.005 -18.890  11.197  1.00  0.00    -0.271 OA
BRANCH  63  65
ATOM     65  CA  GLU A   4      -3.834 -18.328   9.181  1.00  0.00     0.177 C 
BRANCH  65  66
ATOM     66  N   GLU A   4      -2.492 -17.870   9.580  1.00  0.00    -0.346 N 
ATOM     67  H   GLU A   4      -2.040 -17.202   8.968  1.00  0.00     0.163 HD
ATOM     68  C   PRO A   3      -1.720 -18.461  10.497  1.00  0.00     0.241 C 
ATOM     69  O   PRO A   3      -2.084 -19.425  11.149  1.00  0.00    -0.271 OA
BRANCH  68  70
ATOM     70  CA  PRO A   3      -0.323 -17.880  10.757  1.00  0.00     0.179 C 
ATOM     71  N   PRO A   3       0.773 -18.398   9.910  1.00  0.00    -0.337 N 
ATOM     72  CD  PRO A   3       1.478 -17.269   9.308  1.00  0.00     0.127 C 
ATOM     73  C   ASP A   2       1.174 -19.697   9.933  1.00  0.00     0.243 C 
ATOM     74  CG  PRO A   3       1.114 -16.058  10.165  1.00  0.00     0.022 C 
ATOM     75  CB  PRO A   3      -0.331 -16.358  10.550  1.00  0.00     0.037 C 
ATOM     76  O   ASP A   2       0.463 -20.515  10.523  1.00  0.00    -0.271 OA
BRANCH  73  77
ATOM     77  CA  ASP A   2       2.192 -20.271   8.885  1.00  0.00     0.186 C 
BRANCH  77  78
ATOM     78  CB  ASP A   2       1.774 -21.601   8.235  1.00  0.00     0.147 C 
BRANCH  78  79
ATOM     79  CG  ASP A   2       2.671 -22.742   8.686  1.00  0.00     0.175 C 
ATOM     80  OD2 ASP A   2       2.547 -23.058   9.893  1.00  0.00    -0.648 OA
ATOM     81  OD1 ASP A   2       3.162 -23.436   7.788  1.00  0.00    -0.648 OA
ENDBRANCH  78  79
ENDBRANCH  77  78
BRANCH  77  82
ATOM     82  N   ASP A   2       3.606 -20.414   9.314  1.00  0.00    -0.345 N 
ATOM     83  H   ASP A   2       3.773 -21.222   9.893  1.00  0.00     0.163 HD
ATOM     84  C   TYR A   1       4.639 -19.817   8.695  1.00  0.00     0.249 C 
ATOM     85  O   TYR A   1       4.481 -18.924   7.896  1.00  0.00    -0.271 OA
BRANCH  84  86
ATOM     86  CA  TYR A   1       6.052 -19.968   9.216  1.00  0.00     0.278 C 
BRANCH  86  87
ATOM     87  N   TYR A   1       6.419 -21.385   9.376  1.00  0.00    -0.066 N 
ATOM     88  H2  TYR A   1       7.387 -21.527   9.129  1.00  0.00     0.275 HD
ATOM     89  H1  TYR A   1       5.832 -21.947   8.774  1.00  0.00     0.275 HD
ATOM     90  H3  TYR A   1       6.274 -21.663  10.340  1.00  0.00     0.275 HD
ENDBRANCH  86  87
BRANCH  86  91
ATOM     91  CB  TYR A   1       7.108 -19.154   8.469  1.00  0.00     0.081 C 
BRANCH  91  92
ATOM     92  CG  TYR A   1       7.504 -17.899   9.226  1.00  0.00    -0.056 A 
ATOM     93  CD2 TYR A   1       8.789 -17.820   9.811  1.00  0.00     0.010 A 
ATOM     94  CE2 TYR A   1       9.160 -16.676  10.540  1.00  0.00     0.037 A 
ATOM     95  CZ  TYR A   1       8.254 -15.601  10.678  1.00  0.00     0.065 A 
ATOM     96  CE1 TYR A   1       6.988 -15.664  10.066  1.00  0.00     0.037 A 
ATOM     97  CD1 TYR A   1       6.605 -16.811   9.335  1.00  0.00     0.010 A 
BRANCH  95  98
ATOM     98  OH  TYR A   1       8.597 -14.504  11.392  1.00  0.00    -0.361 OA
ATOM     99  HH  TYR A   1       7.830 -13.987  11.640  1.00  0.00     0.217 HD
ENDBRANCH  95  98
ENDBRANCH  91  92
ENDBRANCH  86  91
ENDBRANCH  84  86
ENDBRANCH  77  82
ENDBRANCH  73  77
ENDBRANCH  68  70
ENDBRANCH  65  66
BRANCH  65 100
ATOM    100  CB  GLU A   4      -3.769 -19.829   8.821  1.00  0.00     0.045 C 
BRANCH 100 101
ATOM    101  CG  GLU A   4      -4.690 -20.276   7.675  1.00  0.00     0.116 C 
BRANCH 101 102
ATOM    102  CD  GLU A   4      -5.975 -20.938   8.202  1.00  0.00     0.172 C 
ATOM    103  OE2 GLU A   4      -7.029 -20.653   7.592  1.00  0.00    -0.648 OA
ATOM    104  OE1 GLU A   4      -5.936 -21.407   9.368  1.00  0.00    -0.648 OA
ENDBRANCH 101 102
ENDBRANCH 100 101
ENDBRANCH  65 100
ENDBRANCH  63  65
ENDBRANCH  60  61
BRANCH  60 105
ATOM    105  CB  TYR A   5      -7.017 -15.410  11.391  1.00  0.00     0.073 C 
BRANCH 105 106
ATOM    106  CG  TYR A   5      -6.354 -14.403  10.457  1.00  0.00    -0.056 A 
ATOM    107  CD1 TYR A   5      -7.063 -13.862   9.357  1.00  0.00     0.010 A 
ATOM    108  CE1 TYR A   5      -6.492 -12.813   8.596  1.00  0.00     0.037 A 
ATOM    109  CZ  TYR A   5      -5.216 -12.319   8.925  1.00  0.00     0.065 A 
ATOM    110  CE2 TYR A   5      -4.496 -12.879  10.002  1.00  0.00     0.037 A 
ATOM    111  CD2 TYR A   5      -5.066 -13.911  10.770  1.00  0.00     0.010 A 
BRANCH 109 112
ATOM    112  OH  TYR A   5      -4.681 -11.299   8.216  1.00  0.00    -0.361 OA
ATOM    113  HH  TYR A   5      -3.764 -11.179   8.474  1.00  0.00     0.217 HD
ENDBRANCH 109 112
ENDBRANCH 105 106
ENDBRANCH  60 105
ENDBRANCH   1  60
TORSDOF 38
ENDMDL
MODEL 7
REMARK VINA RESULT:      -2.2      3.900      8.564
REMARK WARNING: 32 MAX_TORS EXCEEDED!!!
REMARK  38 active torsions:
REMARK  status: ('A' for Active; 'I' for Inactive)
REMARK    1  A    between atoms: N_1  and  CA_2 
REMARK    2  A    between atoms: CA_2  and  CB_5 
REMARK    3  A    between atoms: CA_2  and  C_3 
REMARK       I    between atoms: C_3  and  N_17 
REMARK    4  A    between atoms: CB_5  and  CG_6 
REMARK    5  A    between atoms: CZ_10  and  OH_11 
REMARK    6  A    between atoms: N_17  and  CA_18 
REMARK    7  A    between atoms: CA_18  and  CB_21 
REMARK    8  A    between atoms: CA_18  and  C_19 
REMARK       I    between atoms: C_19  and  N_26 
REMARK    9  A    between atoms: CB_21  and  CG_22 
REMARK   10  A    between atoms: CA_27  and  C_28 
REMARK       I    between atoms: C_28  and  N_33 
REMARK   11  A    between atoms: N_33  and  CA_34 
REMARK   12  A    between atoms: CA_34  and  C_35 
REMARK   13  A    between atoms: CA_34  and  CB_37 
REMARK       I    between atoms: C_35  and  N_43 
REMARK   14  A    between atoms: CB_37  and  CG_38 
REMARK   15  A    between atoms: CG_38  and  CD_39 
REMARK   16  A    between atoms: N_43  and  CA_44 
REMARK   17  A    between atoms: CA_44  and  CB_47 
REMARK   18  A    between atoms: CA_44  and  C_45 
REMARK       I    between atoms: C_45  and  N_57 
REMARK   19  A    between atoms: CB_47  and  CG_48 
REMARK   20  A    between atoms: CZ_52  and  OH_53 
REMARK   21  A    between atoms: N_57  and  CA_58 
REMARK   22  A    between atoms: CA_58  and  CB_61 
REMARK   23  A    between atoms: CA_58  and  C_59 
REMARK       I    between atoms: C_59  and  N_74 
REMARK   24  A    between atoms: CB_61  and  CG_62 
REMARK   25  A    between atoms: CG_62  and  CD_63 
REMARK   26  A    between atoms: CD_63  and  NE_64 
REMARK       I    between atoms: NE_64  and  CZ_65 
REMARK       I    between atoms: CZ_65  and  NH2_66 
REMARK   27  A    between atoms: N_74  and  CA_75 
REMARK   28  A    between atoms: CA_75  and  CB_78 
REMARK   29  A    between atoms: CA_75  and  C_76 
REMARK       I    between atoms: C_76  and  N_85 
REMARK   30  A    between atoms: CB_78  and  CG_79 
REMARK       I    between atoms: CG_79  and  ND2_80 
REMARK   31  A    between atoms: N_85  and  CA_86 
REMARK   32  A    between atoms: CA_86  and  CB_89 
REMARK   33  A    between atoms: CA_86  and  C_87 
REMARK       I    between atoms: C_87  and  N_97 
REMARK   34  A    between atoms: CB_89  and  CG_90 
REMARK   35  A    between atoms: N_97  and  CA_98 
REMARK   36  A    between atoms: CA_98  and  C_99 
REMARK   37  A    between atoms: CA_98  and  CB_102 
REMARK   38  A    between atoms: CB_102  and  CG_103 
ROOT
ATOM      1  C   TYR A   5      -8.395 -17.026   8.691  1.00  0.00     0.241 C 
ATOM      2  O   TYR A   5      -8.695 -17.151   7.506  1.00  0.00    -0.271 OA
ATOM      3  N   ARG A   6      -9.140 -17.582   9.663  1.00  0.00    -0.346 N 
ATOM      4  H   ARG A   6      -8.827 -17.456  10.622  1.00  0.00     0.163 HD
ENDROOT
BRANCH   3   5
ATOM      5  CA  ARG A   6     -10.340 -18.410   9.410  1.00  0.00     0.176 C 
BRANCH   5   6
ATOM      6  CB  ARG A   6     -10.268 -19.675  10.291  1.00  0.00     0.036 C 
BRANCH   6   7
ATOM      7  CG  ARG A   6     -11.094 -20.855   9.730  1.00  0.00     0.023 C 
BRANCH   7   8
ATOM      8  CD  ARG A   6     -10.649 -21.303   8.329  1.00  0.00     0.138 C 
BRANCH   8   9
ATOM      9  NE  ARG A   6      -9.394 -22.086   8.369  1.00  0.00    -0.227 N 
ATOM     10  HE  ARG A   6      -9.493 -23.054   8.618  1.00  0.00     0.177 HD
ATOM     11  CZ  ARG A   6      -8.181 -21.694   8.013  1.00  0.00     0.665 C 
ATOM     12  NH2 ARG A   6      -7.213 -22.557   7.993  1.00  0.00    -0.235 N 
ATOM     13  NH1 ARG A   6      -7.889 -20.474   7.660  1.00  0.00    -0.235 N 
ATOM     14 1HH2 ARG A   6      -7.461 -23.528   7.975  1.00  0.00     0.174 HD
ATOM     15 2HH2 ARG A   6      -6.412 -22.327   7.428  1.00  0.00     0.174 HD
ATOM     16 1HH1 ARG A   6      -8.639 -19.840   7.453  1.00  0.00     0.174 HD
ATOM     17 2HH1 ARG A   6      -6.962 -20.252   7.346  1.00  0.00     0.174 HD
ENDBRANCH   8   9
ENDBRANCH   7   8
ENDBRANCH   6   7
ENDBRANCH   5   6
BRANCH   5  18
ATOM     18  C   ARG A   6     -11.675 -17.659   9.616  1.00  0.00     0.241 C 
ATOM     19  N   ASN A   7     -12.551 -18.101  10.530  1.00  0.00    -0.346 N 
ATOM     20  H   ASN A   7     -12.270 -18.855  11.144  1.00  0.00     0.163 HD
ATOM     21  O   ARG A   6     -11.959 -16.747   8.851  1.00  0.00    -0.271 OA
BRANCH  19  22
ATOM     22  CA  ASN A   7     -13.795 -17.369  10.838  1.00  0.00     0.185 C 
BRANCH  22  23
ATOM     23  CB  ASN A   7     -13.612 -15.853  10.631  1.00  0.00     0.137 C 
BRANCH  23  24
ATOM     24  CG  ASN A   7     -14.830 -15.032  10.260  1.00  0.00     0.217 C 
ATOM     25  ND2 ASN A   7     -14.781 -14.470   9.072  1.00  0.00    -0.370 N 
ATOM     26 2HD2 ASN A   7     -13.895 -14.426   8.573  1.00  0.00     0.159 HD
ATOM     27 1HD2 ASN A   7     -15.590 -13.978   8.755  1.00  0.00     0.159 HD
ATOM     28  OD1 ASN A   7     -15.894 -15.079  10.871  1.00  0.00    -0.274 OA
ENDBRANCH  23  24
ENDBRANCH  22  23
BRANCH  22  29
ATOM     29  C   ASN A   7     -15.006 -17.832   9.998  1.00  0.00     0.241 C 
ATOM     30  N   PHE A   8     -16.077 -18.304  10.651  1.00  0.00    -0.346 N 
ATOM     31  H   PHE A   8     -16.022 -18.390  11.661  1.00  0.00     0.163 HD
ATOM     32  O   ASN A   7     -14.902 -17.880   8.772  1.00  0.00    -0.271 OA
BRANCH  30  33
ATOM     33  CA  PHE A   8     -17.340 -18.688  10.002  1.00  0.00     0.180 C 
BRANCH  33  34
ATOM     34  CB  PHE A   8     -17.786 -17.501   9.122  1.00  0.00     0.073 C 
BRANCH  34  35
ATOM     35  CG  PHE A   8     -19.152 -16.934   9.468  1.00  0.00    -0.056 A 
ATOM     36  CD1 PHE A   8     -20.223 -17.065   8.563  1.00  0.00     0.007 A 
ATOM     37  CE1 PHE A   8     -21.448 -16.425   8.825  1.00  0.00     0.001 A 
ATOM     38  CZ  PHE A   8     -21.606 -15.658   9.993  1.00  0.00     0.000 A 
ATOM     39  CE2 PHE A   8     -20.548 -15.555  10.914  1.00  0.00     0.001 A 
ATOM     40  CD2 PHE A   8     -19.326 -16.198  10.655  1.00  0.00     0.007 A 
ENDBRANCH  34  35
ENDBRANCH  33  34
BRANCH  33  41
ATOM     41  C   PHE A   8     -17.235 -20.011   9.204  1.00  0.00     0.241 C 
ATOM     42  N   TRP A   9     -17.115 -21.143   9.916  1.00  0.00    -0.344 N 
ATOM     43  H   TRP A   9     -17.117 -21.056  10.921  1.00  0.00     0.163 HD
ATOM     44  O   PHE A   8     -17.214 -19.977   7.972  1.00  0.00    -0.271 OA
BRANCH  42  45
ATOM     45  CA  TRP A   9     -16.922 -22.505   9.389  1.00  0.00     0.190 C 
BRANCH  45  46
ATOM     46  C   TRP A   9     -18.210 -23.208   8.910  1.00  0.00     0.197 C 
ATOM     47  OXT TRP A   9     -18.211 -23.658   7.735  1.00  0.00    -0.646 OA
ATOM     48  O   TRP A   9     -19.252 -22.951   9.551  1.00  0.00    -0.646 OA
ENDBRANCH  45  46
BRANCH  45  49
ATOM     49  CB  TRP A   9     -16.219 -23.325  10.483  1.00  0.00     0.077 C 
BRANCH  49  50
ATOM     50  CG  TRP A   9     -14.765 -23.558  10.229  1.00  0.00    -0.028 A 
ATOM     51  CD1 TRP A   9     -13.791 -23.250  11.109  1.00  0.00     0.096 A 
ATOM     52  NE1 TRP A   9     -12.581 -23.733  10.659  1.00  0.00    -0.365 N 
ATOM     53  HE1 TRP A   9     -11.773 -23.783  11.255  1.00  0.00     0.165 HD
ATOM     54  CE2 TRP A   9     -12.731 -24.439   9.487  1.00  0.00     0.042 A 
ATOM     55  CD2 TRP A   9     -14.121 -24.345   9.182  1.00  0.00    -0.002 A 
ATOM     56  CZ2 TRP A   9     -11.835 -25.185   8.710  1.00  0.00     0.030 A 
ATOM     57  CE3 TRP A   9     -14.576 -25.056   8.048  1.00  0.00     0.014 A 
ATOM     58  CZ3 TRP A   9     -13.688 -25.825   7.270  1.00  0.00     0.001 A 
ATOM     59  CH2 TRP A   9     -12.320 -25.890   7.596  1.00  0.00     0.002 A 
ENDBRANCH  49  50
ENDBRANCH  45  49
ENDBRANCH  42  45
ENDBRANCH  33  41
ENDBRANCH  30  33
ENDBRANCH  22  29
ENDBRANCH  19  22
ENDBRANCH   5  18
ENDBRANCH   3   5
BRANCH   1  60
ATOM     60  CA  TYR A   5      -7.329 -15.986   9.079  1.00  0.00     0.180 C 
BRANCH  60  61
ATOM     61  N   TYR A   5      -6.267 -16.564   9.911  1.00  0.00    -0.346 N 
ATOM     62  H   TYR A   5      -6.316 -16.435  10.911  1.00  0.00     0.163 HD
ATOM     63  C   GLU A   4      -5.183 -17.162   9.388  1.00  0.00     0.241 C 
ATOM     64  O   GLU A   4      -4.992 -17.173   8.176  1.00  0.00    -0.271 OA
BRANCH  63  65
ATOM     65  CA  GLU A   4      -4.045 -17.533  10.350  1.00  0.00     0.177 C 
BRANCH  65  66
ATOM     66  N   GLU A   4      -2.979 -18.274   9.653  1.00  0.00    -0.346 N 
ATOM     67  H   GLU A   4      -2.963 -18.205   8.643  1.00  0.00     0.163 HD
ATOM     68  C   PRO A   3      -2.229 -19.236  10.200  1.00  0.00     0.241 C 
ATOM     69  O   PRO A   3      -2.319 -19.561  11.371  1.00  0.00    -0.271 OA
BRANCH  68  70
ATOM     70  CA  PRO A   3      -1.192 -19.943   9.316  1.00  0.00     0.179 C 
ATOM     71  N   PRO A   3       0.211 -19.498   9.462  1.00  0.00    -0.337 N 
ATOM     72  CD  PRO A   3       1.053 -20.666   9.707  1.00  0.00     0.127 C 
ATOM     73  C   ASP A   2       0.624 -18.240   9.153  1.00  0.00     0.243 C 
ATOM     74  CG  PRO A   3       0.234 -21.865   9.233  1.00  0.00     0.022 C 
ATOM     75  CB  PRO A   3      -1.187 -21.452   9.603  1.00  0.00     0.037 C 
ATOM     76  O   ASP A   2      -0.237 -17.381   8.944  1.00  0.00    -0.271 OA
BRANCH  73  77
ATOM     77  CA  ASP A   2       2.063 -17.727   9.508  1.00  0.00     0.186 C 
BRANCH  77  78
ATOM     78  CB  ASP A   2       2.320 -16.244   9.194  1.00  0.00     0.147 C 
BRANCH  78  79
ATOM     79  CG  ASP A   2       3.545 -16.070   8.312  1.00  0.00     0.175 C 
ATOM     80  OD2 ASP A   2       4.530 -15.545   8.883  1.00  0.00    -0.648 OA
ATOM     81  OD1 ASP A   2       3.565 -16.736   7.270  1.00  0.00    -0.648 OA
ENDBRANCH  78  79
ENDBRANCH  77  78
BRANCH  77  82
ATOM     82  N   ASP A   2       3.215 -18.498   8.974  1.00  0.00    -0.345 N 
ATOM     83  H   ASP A   2       3.424 -18.294   8.009  1.00  0.00     0.163 HD
ATOM     84  C   TYR A   1       4.147 -19.080   9.747  1.00  0.00     0.249 C 
ATOM     85  O   TYR A   1       3.993 -19.234  10.936  1.00  0.00    -0.271 OA
BRANCH  84  86
ATOM     86  CA  TYR A   1       5.269 -19.892   9.135  1.00  0.00     0.278 C 
BRANCH  86  87
ATOM     87  N   TYR A   1       4.772 -21.159   8.573  1.00  0.00    -0.066 N 
ATOM     88  H2  TYR A   1       4.783 -21.883   9.277  1.00  0.00     0.275 HD
ATOM     89  H1  TYR A   1       5.364 -21.431   7.800  1.00  0.00     0.275 HD
ATOM     90  H3  TYR A   1       3.824 -21.029   8.240  1.00  0.00     0.275 HD
ENDBRANCH  86  87
BRANCH  86  91
ATOM     91  CB  TYR A   1       6.176 -19.123   8.175  1.00  0.00     0.081 C 
BRANCH  91  92
ATOM     92  CG  TYR A   1       7.646 -19.308   8.505  1.00  0.00    -0.056 A 
ATOM     93  CD2 TYR A   1       8.224 -18.538   9.541  1.00  0.00     0.010 A 
ATOM     94  CE2 TYR A   1       9.591 -18.676   9.840  1.00  0.00     0.037 A 
ATOM     95  CZ  TYR A   1      10.384 -19.592   9.115  1.00  0.00     0.065 A 
ATOM     96  CE1 TYR A   1       9.802 -20.386   8.108  1.00  0.00     0.037 A 
ATOM     97  CD1 TYR A   1       8.430 -20.251   7.799  1.00  0.00     0.010 A 
BRANCH  95  98
ATOM     98  OH  TYR A   1      11.704 -19.719   9.385  1.00  0.00    -0.361 OA
ATOM     99  HH  TYR A   1      12.172 -18.890   9.268  1.00  0.00     0.217 HD
ENDBRANCH  95  98
ENDBRANCH  91  92
ENDBRANCH  86  91
ENDBRANCH  84  86
ENDBRANCH  77  82
ENDBRANCH  73  77
ENDBRANCH  68  70
ENDBRANCH  65  66
BRANCH  65 100
ATOM    100  CB  GLU A   4      -3.439 -16.273  11.005  1.00  0.00     0.045 C 
BRANCH 100 101
ATOM    101  CG  GLU A   4      -3.837 -14.935  10.361  1.00  0.00     0.116 C 
BRANCH 101 102
ATOM    102  CD  GLU A   4      -2.715 -14.377   9.469  1.00  0.00     0.172 C 
ATOM    103  OE2 GLU A   4      -3.015 -14.178   8.270  1.00  0.00    -0.648 OA
ATOM    104  OE1 GLU A   4      -1.537 -14.497   9.892  1.00  0.00    -0.648 OA
ENDBRANCH 101 102
ENDBRANCH 100 101
ENDBRANCH  65 100
ENDBRANCH  63  65
ENDBRANCH  60  61
BRANCH  60 105
ATOM    105  CB  TYR A   5      -6.729 -15.296   7.839  1.00  0.00     0.073 C 
BRANCH 105 106
ATOM    106  CG  TYR A   5      -7.018 -13.806   7.689  1.00  0.00    -0.056 A 
ATOM    107  CD1 TYR A   5      -8.323 -13.351   7.380  1.00  0.00     0.010 A 
ATOM    108  CE1 TYR A   5      -8.610 -11.964   7.401  1.00  0.00     0.037 A 
ATOM    109  CZ  TYR A   5      -7.596 -11.041   7.717  1.00  0.00     0.065 A 
ATOM    110  CE2 TYR A   5      -6.288 -11.491   7.996  1.00  0.00     0.037 A 
ATOM    111  CD2 TYR A   5      -6.002 -12.870   7.990  1.00  0.00     0.010 A 
BRANCH 109 112
ATOM    112  OH  TYR A   5      -7.876  -9.718   7.764  1.00  0.00    -0.361 OA
ATOM    113  HH  TYR A   5      -7.315  -9.297   8.420  1.00  0.00     0.217 HD
ENDBRANCH 109 112
ENDBRANCH 105 106
ENDBRANCH  60 105
ENDBRANCH   1  60
TORSDOF 38
ENDMDL
MODEL 8
REMARK VINA RESULT:      -2.0     11.730     19.164
REMARK WARNING: 32 MAX_TORS EXCEEDED!!!
REMARK  38 active torsions:
REMARK  status: ('A' for Active; 'I' for Inactive)
REMARK    1  A    between atoms: N_1  and  CA_2 
REMARK    2  A    between atoms: CA_2  and  CB_5 
REMARK    3  A    between atoms: CA_2  and  C_3 
REMARK       I    between atoms: C_3  and  N_17 
REMARK    4  A    between atoms: CB_5  and  CG_6 
REMARK    5  A    between atoms: CZ_10  and  OH_11 
REMARK    6  A    between atoms: N_17  and  CA_18 
REMARK    7  A    between atoms: CA_18  and  CB_21 
REMARK    8  A    between atoms: CA_18  and  C_19 
REMARK       I    between atoms: C_19  and  N_26 
REMARK    9  A    between atoms: CB_21  and  CG_22 
REMARK   10  A    between atoms: CA_27  and  C_28 
REMARK       I    between atoms: C_28  and  N_33 
REMARK   11  A    between atoms: N_33  and  CA_34 
REMARK   12  A    between atoms: CA_34  and  C_35 
REMARK   13  A    between atoms: CA_34  and  CB_37 
REMARK       I    between atoms: C_35  and  N_43 
REMARK   14  A    between atoms: CB_37  and  CG_38 
REMARK   15  A    between atoms: CG_38  and  CD_39 
REMARK   16  A    between atoms: N_43  and  CA_44 
REMARK   17  A    between atoms: CA_44  and  CB_47 
REMARK   18  A    between atoms: CA_44  and  C_45 
REMARK       I    between atoms: C_45  and  N_57 
REMARK   19  A    between atoms: CB_47  and  CG_48 
REMARK   20  A    between atoms: CZ_52  and  OH_53 
REMARK   21  A    between atoms: N_57  and  CA_58 
REMARK   22  A    between atoms: CA_58  and  CB_61 
REMARK   23  A    between atoms: CA_58  and  C_59 
REMARK       I    between atoms: C_59  and  N_74 
REMARK   24  A    between atoms: CB_61  and  CG_62 
REMARK   25  A    between atoms: CG_62  and  CD_63 
REMARK   26  A    between atoms: CD_63  and  NE_64 
REMARK       I    between atoms: NE_64  and  CZ_65 
REMARK       I    between atoms: CZ_65  and  NH2_66 
REMARK   27  A    between atoms: N_74  and  CA_75 
REMARK   28  A    between atoms: CA_75  and  CB_78 
REMARK   29  A    between atoms: CA_75  and  C_76 
REMARK       I    between atoms: C_76  and  N_85 
REMARK   30  A    between atoms: CB_78  and  CG_79 
REMARK       I    between atoms: CG_79  and  ND2_80 
REMARK   31  A    between atoms: N_85  and  CA_86 
REMARK   32  A    between atoms: CA_86  and  CB_89 
REMARK   33  A    between atoms: CA_86  and  C_87 
REMARK       I    between atoms: C_87  and  N_97 
REMARK   34  A    between atoms: CB_89  and  CG_90 
REMARK   35  A    between atoms: N_97  and  CA_98 
REMARK   36  A    between atoms: CA_98  and  C_99 
REMARK   37  A    between atoms: CA_98  and  CB_102 
REMARK   38  A    between atoms: CB_102  and  CG_103 
ROOT
ATOM      1  C   TYR A   5       5.387 -29.111   9.318  1.00  0.00     0.241 C 
ATOM      2  O   TYR A   5       4.974 -28.371  10.208  1.00  0.00    -0.271 OA
ATOM      3  N   ARG A   6       4.932 -29.009   8.057  1.00  0.00    -0.346 N 
ATOM      4  H   ARG A   6       5.327 -29.640   7.364  1.00  0.00     0.163 HD
ENDROOT
BRANCH   3   5
ATOM      5  CA  ARG A   6       3.946 -27.997   7.615  1.00  0.00     0.176 C 
BRANCH   5   6
ATOM      6  CB  ARG A   6       2.552 -28.398   8.139  1.00  0.00     0.036 C 
BRANCH   6   7
ATOM      7  CG  ARG A   6       2.079 -29.776   7.619  1.00  0.00     0.023 C 
BRANCH   7   8
ATOM      8  CD  ARG A   6       1.978 -30.843   8.721  1.00  0.00     0.138 C 
BRANCH   8   9
ATOM      9  NE  ARG A   6       1.560 -32.157   8.184  1.00  0.00    -0.227 N 
ATOM     10  HE  ARG A   6       2.298 -32.822   8.038  1.00  0.00     0.177 HD
ATOM     11  CZ  ARG A   6       0.328 -32.595   7.978  1.00  0.00     0.665 C 
ATOM     12  NH2 ARG A   6       0.142 -33.828   7.621  1.00  0.00    -0.235 N 
ATOM     13  NH1 ARG A   6      -0.737 -31.859   8.126  1.00  0.00    -0.235 N 
ATOM     14 1HH2 ARG A   6       0.892 -34.473   7.779  1.00  0.00     0.174 HD
ATOM     15 2HH2 ARG A   6      -0.773 -34.214   7.784  1.00  0.00     0.174 HD
ATOM     16 1HH1 ARG A   6      -0.652 -30.981   8.606  1.00  0.00     0.174 HD
ATOM     17 2HH1 ARG A   6      -1.647 -32.265   8.009  1.00  0.00     0.174 HD
ENDBRANCH   8   9
ENDBRANCH   7   8
ENDBRANCH   6   7
ENDBRANCH   5   6
BRANCH   5  18
ATOM     18  C   ARG A   6       4.305 -26.552   8.026  1.00  0.00     0.241 C 
ATOM     19  N   ASN A   7       3.503 -25.882   8.866  1.00  0.00    -0.346 N 
ATOM     20  H   ASN A   7       2.735 -26.378   9.300  1.00  0.00     0.163 HD
ATOM     21  O   ARG A   6       5.251 -26.003   7.477  1.00  0.00    -0.271 OA
BRANCH  19  22
ATOM     22  CA  ASN A   7       3.845 -24.538   9.370  1.00  0.00     0.185 C 
BRANCH  22  23
ATOM     23  CB  ASN A   7       5.373 -24.343   9.433  1.00  0.00     0.137 C 
BRANCH  23  24
ATOM     24  CG  ASN A   7       6.066 -24.566  10.762  1.00  0.00     0.217 C 
ATOM     25  ND2 ASN A   7       5.720 -25.668  11.391  1.00  0.00    -0.370 N 
ATOM     26 2HD2 ASN A   7       4.893 -26.180  11.091  1.00  0.00     0.159 HD
ATOM     27 1HD2 ASN A   7       6.202 -25.892  12.235  1.00  0.00     0.159 HD
ATOM     28  OD1 ASN A   7       7.056 -23.938  11.127  1.00  0.00    -0.274 OA
ENDBRANCH  23  24
ENDBRANCH  22  23
BRANCH  22  29
ATOM     29  C   ASN A   7       3.244 -23.392   8.525  1.00  0.00     0.241 C 
ATOM     30  N   PHE A   8       2.559 -22.434   9.168  1.00  0.00    -0.346 N 
ATOM     31  H   PHE A   8       2.420 -22.535  10.168  1.00  0.00     0.163 HD
ATOM     32  O   ASN A   7       3.291 -23.462   7.298  1.00  0.00    -0.271 OA
BRANCH  30  33
ATOM     33  CA  PHE A   8       2.015 -21.230   8.522  1.00  0.00     0.180 C 
BRANCH  33  34
ATOM     34  CB  PHE A   8       0.513 -21.482   8.268  1.00  0.00     0.073 C 
BRANCH  34  35
ATOM     35  CG  PHE A   8      -0.143 -22.437   9.250  1.00  0.00    -0.056 A 
ATOM     36  CD1 PHE A   8      -0.462 -23.751   8.856  1.00  0.00     0.007 A 
ATOM     37  CE1 PHE A   8      -1.188 -24.589   9.721  1.00  0.00     0.001 A 
ATOM     38  CZ  PHE A   8      -1.593 -24.118  10.982  1.00  0.00     0.000 A 
ATOM     39  CE2 PHE A   8      -1.247 -22.818  11.390  1.00  0.00     0.001 A 
ATOM     40  CD2 PHE A   8      -0.517 -21.981  10.529  1.00  0.00     0.007 A 
ENDBRANCH  34  35
ENDBRANCH  33  34
BRANCH  33  41
ATOM     41  C   PHE A   8       2.270 -19.937   9.334  1.00  0.00     0.241 C 
ATOM     42  N   TRP A   9       2.231 -18.777   8.659  1.00  0.00    -0.344 N 
ATOM     43  H   TRP A   9       2.023 -18.825   7.674  1.00  0.00     0.163 HD
ATOM     44  O   PHE A   8       2.544 -20.017  10.534  1.00  0.00    -0.271 OA
BRANCH  42  45
ATOM     45  CA  TRP A   9       2.515 -17.432   9.190  1.00  0.00     0.190 C 
BRANCH  45  46
ATOM     46  C   TRP A   9       1.271 -16.614   9.597  1.00  0.00     0.197 C 
ATOM     47  OXT TRP A   9       0.744 -15.896   8.708  1.00  0.00    -0.646 OA
ATOM     48  O   TRP A   9       1.111 -16.423  10.822  1.00  0.00    -0.646 OA
ENDBRANCH  45  46
BRANCH  45  49
ATOM     49  CB  TRP A   9       3.345 -16.688   8.132  1.00  0.00     0.077 C 
BRANCH  49  50
ATOM     50  CG  TRP A   9       4.682 -16.230   8.618  1.00  0.00    -0.028 A 
ATOM     51  CD1 TRP A   9       5.100 -14.949   8.569  1.00  0.00     0.096 A 
ATOM     52  NE1 TRP A   9       6.298 -14.819   9.238  1.00  0.00    -0.365 N 
ATOM     53  HE1 TRP A   9       6.675 -13.921   9.486  1.00  0.00     0.165 HD
ATOM     54  CE2 TRP A   9       6.680 -16.011   9.812  1.00  0.00     0.042 A 
ATOM     55  CD2 TRP A   9       5.665 -16.939   9.433  1.00  0.00    -0.002 A 
ATOM     56  CZ2 TRP A   9       7.745 -16.357  10.655  1.00  0.00     0.030 A 
ATOM     57  CE3 TRP A   9       5.767 -18.247   9.957  1.00  0.00     0.014 A 
ATOM     58  CZ3 TRP A   9       6.823 -18.602  10.821  1.00  0.00     0.001 A 
ATOM     59  CH2 TRP A   9       7.811 -17.663  11.169  1.00  0.00     0.002 A 
ENDBRANCH  49  50
ENDBRANCH  45  49
ENDBRANCH  42  45
ENDBRANCH  33  41
ENDBRANCH  30  33
ENDBRANCH  22  29
ENDBRANCH  19  22
ENDBRANCH   5  18
ENDBRANCH   3   5
BRANCH   1  60
ATOM     60  CA  TYR A   5       6.210 -30.351   9.709  1.00  0.00     0.180 C 
BRANCH  60  61
ATOM     61  N   TYR A   5       7.457 -29.995  10.396  1.00  0.00    -0.346 N 
ATOM     62  H   TYR A   5       7.403 -29.408  11.217  1.00  0.00     0.163 HD
ATOM     63  C   GLU A   4       8.667 -30.326   9.917  1.00  0.00     0.241 C 
ATOM     64  O   GLU A   4       8.785 -30.874   8.825  1.00  0.00    -0.271 OA
BRANCH  63  65
ATOM     65  CA  GLU A   4       9.895 -29.715  10.607  1.00  0.00     0.177 C 
BRANCH  65  66
ATOM     66  N   GLU A   4      11.091 -29.811   9.751  1.00  0.00    -0.346 N 
ATOM     67  H   GLU A   4      10.967 -29.590   8.771  1.00  0.00     0.163 HD
ATOM     68  C   PRO A   3      12.228 -30.430  10.087  1.00  0.00     0.241 C 
ATOM     69  O   PRO A   3      12.409 -30.936  11.181  1.00  0.00    -0.271 OA
BRANCH  68  70
ATOM     70  CA  PRO A   3      13.362 -30.480   9.054  1.00  0.00     0.179 C 
ATOM     71  N   PRO A   3      14.528 -29.607   9.313  1.00  0.00    -0.337 N 
ATOM     72  CD  PRO A   3      15.744 -30.414   9.253  1.00  0.00     0.127 C 
ATOM     73  C   ASP A   2      14.444 -28.250   9.335  1.00  0.00     0.243 C 
ATOM     74  CG  PRO A   3      15.358 -31.677   8.487  1.00  0.00     0.022 C 
ATOM     75  CB  PRO A   3      13.922 -31.907   8.947  1.00  0.00     0.037 C 
ATOM     76  O   ASP A   2      13.321 -27.737   9.351  1.00  0.00    -0.271 OA
BRANCH  73  77
ATOM     77  CA  ASP A   2      15.638 -27.351   9.813  1.00  0.00     0.186 C 
BRANCH  77  78
ATOM     78  CB  ASP A   2      15.232 -25.987  10.395  1.00  0.00     0.147 C 
BRANCH  78  79
ATOM     79  CG  ASP A   2      15.631 -24.851   9.469  1.00  0.00     0.175 C 
ATOM     80  OD2 ASP A   2      14.943 -24.760   8.426  1.00  0.00    -0.648 OA
ATOM     81  OD1 ASP A   2      16.337 -23.965   9.967  1.00  0.00    -0.648 OA
ENDBRANCH  78  79
ENDBRANCH  77  78
BRANCH  77  82
ATOM     82  N   ASP A   2      16.740 -27.110   8.848  1.00  0.00    -0.345 N 
ATOM     83  H   ASP A   2      16.458 -26.578   8.039  1.00  0.00     0.163 HD
ATOM     84  C   TYR A   1      18.043 -27.199   9.164  1.00  0.00     0.249 C 
ATOM     85  O   TYR A   1      18.423 -27.719  10.186  1.00  0.00    -0.271 OA
BRANCH  84  86
ATOM     86  CA  TYR A   1      19.115 -26.986   8.115  1.00  0.00     0.278 C 
BRANCH  86  87
ATOM     87  N   TYR A   1      19.329 -28.199   7.310  1.00  0.00    -0.066 N 
ATOM     88  H2  TYR A   1      19.670 -28.950   7.892  1.00  0.00     0.275 HD
ATOM     89  H1  TYR A   1      20.006 -27.999   6.586  1.00  0.00     0.275 HD
ATOM     90  H3  TYR A   1      18.453 -28.478   6.883  1.00  0.00     0.275 HD
ENDBRANCH  86  87
BRANCH  86  91
ATOM     91  CB  TYR A   1      18.950 -25.724   7.269  1.00  0.00     0.081 C 
BRANCH  91  92
ATOM     92  CG  TYR A   1      19.488 -24.490   7.971  1.00  0.00    -0.056 A 
ATOM     93  CD2 TYR A   1      20.564 -24.625   8.879  1.00  0.00     0.010 A 
ATOM     94  CE2 TYR A   1      21.055 -23.497   9.560  1.00  0.00     0.037 A 
ATOM     95  CZ  TYR A   1      20.482 -22.227   9.328  1.00  0.00     0.065 A 
ATOM     96  CE1 TYR A   1      19.434 -22.086   8.397  1.00  0.00     0.037 A 
ATOM     97  CD1 TYR A   1      18.933 -23.215   7.712  1.00  0.00     0.010 A 
BRANCH  95  98
ATOM     98  OH  TYR A   1      20.937 -21.139   9.992  1.00  0.00    -0.361 OA
ATOM     99  HH  TYR A   1      21.368 -20.518   9.403  1.00  0.00     0.217 HD
ENDBRANCH  95  98
ENDBRANCH  91  92
ENDBRANCH  86  91
ENDBRANCH  84  86
ENDBRANCH  77  82
ENDBRANCH  73  77
ENDBRANCH  68  70
ENDBRANCH  65  66
BRANCH  65 100
ATOM    100  CB  GLU A   4       9.650 -28.233  10.965  1.00  0.00     0.045 C 
BRANCH 100 101
ATOM    101  CG  GLU A   4       9.658 -27.254   9.780  1.00  0.00     0.116 C 
BRANCH 101 102
ATOM    102  CD  GLU A   4      10.223 -25.880  10.180  1.00  0.00     0.172 C 
ATOM    103  OE2 GLU A   4      11.017 -25.356   9.367  1.00  0.00    -0.648 OA
ATOM    104  OE1 GLU A   4      10.138 -25.561  11.393  1.00  0.00    -0.648 OA
ENDBRANCH 101 102
ENDBRANCH 100 101
ENDBRANCH  65 100
ENDBRANCH  63  65
ENDBRANCH  60  61
BRANCH  60 105
ATOM    105  CB  TYR A   5       5.387 -31.337  10.560  1.00  0.00     0.073 C 
BRANCH 105 106
ATOM    106  CG  TYR A   5       4.949 -32.624   9.868  1.00  0.00    -0.056 A 
ATOM    107  CD1 TYR A   5       4.139 -33.567  10.545  1.00  0.00     0.010 A 
ATOM    108  CE1 TYR A   5       3.609 -34.677   9.841  1.00  0.00     0.037 A 
ATOM    109  CZ  TYR A   5       3.899 -34.845   8.474  1.00  0.00     0.065 A 
ATOM    110  CE2 TYR A   5       4.732 -33.922   7.806  1.00  0.00     0.037 A 
ATOM    111  CD2 TYR A   5       5.248 -32.810   8.500  1.00  0.00     0.010 A 
BRANCH 109 112
ATOM    112  OH  TYR A   5       3.372 -35.889   7.793  1.00  0.00    -0.361 OA
ATOM    113  HH  TYR A   5       4.067 -36.330   7.298  1.00  0.00     0.217 HD
ENDBRANCH 109 112
ENDBRANCH 105 106
ENDBRANCH  60 105
ENDBRANCH   1  60
TORSDOF 38
ENDMDL
MODEL 9
REMARK VINA RESULT:      -1.9     10.178     19.720
REMARK WARNING: 32 MAX_TORS EXCEEDED!!!
REMARK  38 active torsions:
REMARK  status: ('A' for Active; 'I' for Inactive)
REMARK    1  A    between atoms: N_1  and  CA_2 
REMARK    2  A    between atoms: CA_2  and  CB_5 
REMARK    3  A    between atoms: CA_2  and  C_3 
REMARK       I    between atoms: C_3  and  N_17 
REMARK    4  A    between atoms: CB_5  and  CG_6 
REMARK    5  A    between atoms: CZ_10  and  OH_11 
REMARK    6  A    between atoms: N_17  and  CA_18 
REMARK    7  A    between atoms: CA_18  and  CB_21 
REMARK    8  A    between atoms: CA_18  and  C_19 
REMARK       I    between atoms: C_19  and  N_26 
REMARK    9  A    between atoms: CB_21  and  CG_22 
REMARK   10  A    between atoms: CA_27  and  C_28 
REMARK       I    between atoms: C_28  and  N_33 
REMARK   11  A    between atoms: N_33  and  CA_34 
REMARK   12  A    between atoms: CA_34  and  C_35 
REMARK   13  A    between atoms: CA_34  and  CB_37 
REMARK       I    between atoms: C_35  and  N_43 
REMARK   14  A    between atoms: CB_37  and  CG_38 
REMARK   15  A    between atoms: CG_38  and  CD_39 
REMARK   16  A    between atoms: N_43  and  CA_44 
REMARK   17  A    between atoms: CA_44  and  CB_47 
REMARK   18  A    between atoms: CA_44  and  C_45 
REMARK       I    between atoms: C_45  and  N_57 
REMARK   19  A    between atoms: CB_47  and  CG_48 
REMARK   20  A    between atoms: CZ_52  and  OH_53 
REMARK   21  A    between atoms: N_57  and  CA_58 
REMARK   22  A    between atoms: CA_58  and  CB_61 
REMARK   23  A    between atoms: CA_58  and  C_59 
REMARK       I    between atoms: C_59  and  N_74 
REMARK   24  A    between atoms: CB_61  and  CG_62 
REMARK   25  A    between atoms: CG_62  and  CD_63 
REMARK   26  A    between atoms: CD_63  and  NE_64 
REMARK       I    between atoms: NE_64  and  CZ_65 
REMARK       I    between atoms: CZ_65  and  NH2_66 
REMARK   27  A    between atoms: N_74  and  CA_75 
REMARK   28  A    between atoms: CA_75  and  CB_78 
REMARK   29  A    between atoms: CA_75  and  C_76 
REMARK       I    between atoms: C_76  and  N_85 
REMARK   30  A    between atoms: CB_78  and  CG_79 
REMARK       I    between atoms: CG_79  and  ND2_80 
REMARK   31  A    between atoms: N_85  and  CA_86 
REMARK   32  A    between atoms: CA_86  and  CB_89 
REMARK   33  A    between atoms: CA_86  and  C_87 
REMARK       I    between atoms: C_87  and  N_97 
REMARK   34  A    between atoms: CB_89  and  CG_90 
REMARK   35  A    between atoms: N_97  and  CA_98 
REMARK   36  A    between atoms: CA_98  and  C_99 
REMARK   37  A    between atoms: CA_98  and  CB_102 
REMARK   38  A    between atoms: CB_102  and  CG_103 
ROOT
ATOM      1  C   TYR A   5       1.449 -23.059   9.677  1.00  0.00     0.241 C 
ATOM      2  O   TYR A   5       0.994 -22.748  10.775  1.00  0.00    -0.271 OA
ATOM      3  N   ARG A   6       2.652 -22.618   9.269  1.00  0.00    -0.346 N 
ATOM      4  H   ARG A   6       2.978 -22.927   8.357  1.00  0.00     0.163 HD
ENDROOT
BRANCH   3   5
ATOM      5  CA  ARG A   6       3.542 -21.770  10.092  1.00  0.00     0.176 C 
BRANCH   5   6
ATOM      6  CB  ARG A   6       3.934 -22.547  11.366  1.00  0.00     0.036 C 
BRANCH   6   7
ATOM      7  CG  ARG A   6       5.084 -23.554  11.135  1.00  0.00     0.023 C 
BRANCH   7   8
ATOM      8  CD  ARG A   6       4.605 -25.007  10.984  1.00  0.00     0.138 C 
BRANCH   8   9
ATOM      9  NE  ARG A   6       3.146 -25.135  11.196  1.00  0.00    -0.227 N 
ATOM     10  HE  ARG A   6       2.624 -24.278  11.158  1.00  0.00     0.177 HD
ATOM     11  CZ  ARG A   6       2.438 -26.247  11.321  1.00  0.00     0.665 C 
ATOM     12  NH2 ARG A   6       1.145 -26.175  11.372  1.00  0.00    -0.235 N 
ATOM     13  NH1 ARG A   6       2.965 -27.437  11.382  1.00  0.00    -0.235 N 
ATOM     14 1HH2 ARG A   6       0.715 -25.332  11.043  1.00  0.00     0.174 HD
ATOM     15 2HH2 ARG A   6       0.635 -27.013  11.143  1.00  0.00     0.174 HD
ATOM     16 1HH1 ARG A   6       3.930 -27.550  11.128  1.00  0.00     0.174 HD
ATOM     17 2HH1 ARG A   6       2.372 -28.245  11.420  1.00  0.00     0.174 HD
ENDBRANCH   8   9
ENDBRANCH   7   8
ENDBRANCH   6   7
ENDBRANCH   5   6
BRANCH   5  18
ATOM     18  C   ARG A   6       4.792 -21.259   9.341  1.00  0.00     0.241 C 
ATOM     19  N   ASN A   7       5.200 -19.994   9.516  1.00  0.00    -0.346 N 
ATOM     20  H   ASN A   7       4.743 -19.432  10.222  1.00  0.00     0.163 HD
ATOM     21  O   ARG A   6       5.312 -21.985   8.504  1.00  0.00    -0.271 OA
BRANCH  19  22
ATOM     22  CA  ASN A   7       6.441 -19.481   8.902  1.00  0.00     0.185 C 
BRANCH  22  23
ATOM     23  CB  ASN A   7       6.270 -18.018   8.448  1.00  0.00     0.137 C 
BRANCH  23  24
ATOM     24  CG  ASN A   7       5.493 -17.079   9.348  1.00  0.00     0.217 C 
ATOM     25  ND2 ASN A   7       6.113 -15.959   9.651  1.00  0.00    -0.370 N 
ATOM     26 2HD2 ASN A   7       7.110 -15.870   9.467  1.00  0.00     0.159 HD
ATOM     27 1HD2 ASN A   7       5.612 -15.278  10.182  1.00  0.00     0.159 HD
ATOM     28  OD1 ASN A   7       4.292 -17.194   9.578  1.00  0.00    -0.274 OA
ENDBRANCH  23  24
ENDBRANCH  22  23
BRANCH  22  29
ATOM     29  C   ASN A   7       7.668 -19.559   9.837  1.00  0.00     0.241 C 
ATOM     30  N   PHE A   8       8.844 -19.912   9.297  1.00  0.00    -0.346 N 
ATOM     31  H   PHE A   8       8.863 -20.167   8.315  1.00  0.00     0.163 HD
ATOM     32  O   ASN A   7       7.508 -19.431  11.051  1.00  0.00    -0.271 OA
BRANCH  30  33
ATOM     33  CA  PHE A   8      10.119 -19.935  10.032  1.00  0.00     0.180 C 
BRANCH  33  34
ATOM     34  CB  PHE A   8      10.999 -21.031   9.395  1.00  0.00     0.073 C 
BRANCH  34  35
ATOM     35  CG  PHE A   8      10.467 -22.444   9.559  1.00  0.00    -0.056 A 
ATOM     36  CD1 PHE A   8       9.101 -22.660   9.828  1.00  0.00     0.007 A 
ATOM     37  CE1 PHE A   8       8.636 -23.957  10.111  1.00  0.00     0.001 A 
ATOM     38  CZ  PHE A   8       9.534 -25.040  10.123  1.00  0.00     0.000 A 
ATOM     39  CE2 PHE A   8      10.891 -24.831   9.821  1.00  0.00     0.001 A 
ATOM     40  CD2 PHE A   8      11.355 -23.536   9.533  1.00  0.00     0.007 A 
ENDBRANCH  34  35
ENDBRANCH  33  34
BRANCH  33  41
ATOM     41  C   PHE A   8      10.823 -18.555  10.066  1.00  0.00     0.241 C 
ATOM     42  N   TRP A   9      10.953 -17.909   8.897  1.00  0.00    -0.344 N 
ATOM     43  H   TRP A   9      10.570 -18.358   8.079  1.00  0.00     0.163 HD
ATOM     44  O   PHE A   8      11.274 -18.130  11.132  1.00  0.00    -0.271 OA
BRANCH  42  45
ATOM     45  CA  TRP A   9      11.648 -16.632   8.662  1.00  0.00     0.190 C 
BRANCH  45  46
ATOM     46  C   TRP A   9      10.783 -15.525   8.021  1.00  0.00     0.197 C 
ATOM     47  OXT TRP A   9       9.664 -15.871   7.560  1.00  0.00    -0.646 OA
ATOM     48  O   TRP A   9      11.385 -14.489   7.666  1.00  0.00    -0.646 OA
ENDBRANCH  45  46
BRANCH  45  49
ATOM     49  CB  TRP A   9      12.885 -16.934   7.803  1.00  0.00     0.077 C 
BRANCH  49  50
ATOM     50  CG  TRP A   9      14.152 -17.067   8.585  1.00  0.00    -0.028 A 
ATOM     51  CD1 TRP A   9      14.587 -16.149   9.471  1.00  0.00     0.096 A 
ATOM     52  NE1 TRP A   9      15.688 -16.630  10.146  1.00  0.00    -0.365 N 
ATOM     53  HE1 TRP A   9      16.038 -16.187  10.978  1.00  0.00     0.165 HD
ATOM     54  CE2 TRP A   9      15.979 -17.921   9.768  1.00  0.00     0.042 A 
ATOM     55  CD2 TRP A   9      15.013 -18.232   8.765  1.00  0.00    -0.002 A 
ATOM     56  CZ2 TRP A   9      16.920 -18.853  10.226  1.00  0.00     0.030 A 
ATOM     57  CE3 TRP A   9      15.032 -19.547   8.246  1.00  0.00     0.014 A 
ATOM     58  CZ3 TRP A   9      15.962 -20.498   8.712  1.00  0.00     0.001 A 
ATOM     59  CH2 TRP A   9      16.905 -20.154   9.698  1.00  0.00     0.002 A 
ENDBRANCH  49  50
ENDBRANCH  45  49
ENDBRANCH  42  45
ENDBRANCH  33  41
ENDBRANCH  30  33
ENDBRANCH  22  29
ENDBRANCH  19  22
ENDBRANCH   5  18
ENDBRANCH   3   5
BRANCH   1  60
ATOM     60  CA  TYR A   5       0.513 -23.718   8.648  1.00  0.00     0.180 C 
BRANCH  60  61
ATOM     61  N   TYR A   5      -0.638 -22.868   8.322  1.00  0.00    -0.346 N 
ATOM     62  H   TYR A   5      -1.566 -23.245   8.453  1.00  0.00     0.163 HD
ATOM     63  C   GLU A   4      -0.506 -21.656   7.758  1.00  0.00     0.241 C 
ATOM     64  O   GLU A   4       0.594 -21.240   7.407  1.00  0.00    -0.271 OA
BRANCH  63  65
ATOM     65  CA  GLU A   4      -1.783 -20.958   7.269  1.00  0.00     0.177 C 
BRANCH  65  66
ATOM     66  N   GLU A   4      -2.930 -21.884   7.268  1.00  0.00    -0.346 N 
ATOM     67  H   GLU A   4      -3.163 -22.317   6.384  1.00  0.00     0.163 HD
ATOM     68  C   PRO A   3      -3.843 -21.975   8.240  1.00  0.00     0.241 C 
ATOM     69  O   PRO A   3      -3.782 -21.327   9.271  1.00  0.00    -0.271 OA
BRANCH  68  70
ATOM     70  CA  PRO A   3      -5.006 -22.961   8.056  1.00  0.00     0.179 C 
ATOM     71  N   PRO A   3      -5.035 -24.123   8.971  1.00  0.00    -0.337 N 
ATOM     72  CD  PRO A   3      -6.350 -24.193   9.603  1.00  0.00     0.127 C 
ATOM     73  C   ASP A   2      -4.067 -25.077   8.983  1.00  0.00     0.243 C 
ATOM     74  CG  PRO A   3      -7.273 -23.361   8.715  1.00  0.00     0.022 C 
ATOM     75  CB  PRO A   3      -6.349 -22.241   8.248  1.00  0.00     0.037 C 
ATOM     76  O   ASP A   2      -3.024 -24.857   8.361  1.00  0.00    -0.271 OA
BRANCH  73  77
ATOM     77  CA  ASP A   2      -4.005 -26.184  10.094  1.00  0.00     0.186 C 
BRANCH  77  78
ATOM     78  CB  ASP A   2      -2.624 -26.379  10.741  1.00  0.00     0.147 C 
BRANCH  78  79
ATOM     79  CG  ASP A   2      -2.083 -27.775  10.480  1.00  0.00     0.175 C 
ATOM     80  OD2 ASP A   2      -1.264 -27.849   9.533  1.00  0.00    -0.648 OA
ATOM     81  OD1 ASP A   2      -2.234 -28.597  11.391  1.00  0.00    -0.648 OA
ENDBRANCH  78  79
ENDBRANCH  77  78
BRANCH  77  82
ATOM     82  N   ASP A   2      -4.524 -27.531   9.744  1.00  0.00    -0.345 N 
ATOM     83  H   ASP A   2      -3.832 -28.134   9.326  1.00  0.00     0.163 HD
ATOM     84  C   TYR A   1      -5.634 -28.066  10.279  1.00  0.00     0.249 C 
ATOM     85  O   TYR A   1      -6.434 -27.405  10.899  1.00  0.00    -0.271 OA
BRANCH  84  86
ATOM     86  CA  TYR A   1      -6.132 -29.428   9.841  1.00  0.00     0.278 C 
BRANCH  86  87
ATOM     87  N   TYR A   1      -7.574 -29.405   9.548  1.00  0.00    -0.066 N 
ATOM     88  H2  TYR A   1      -8.075 -29.986  10.205  1.00  0.00     0.275 HD
ATOM     89  H1  TYR A   1      -7.725 -29.750   8.610  1.00  0.00     0.275 HD
ATOM     90  H3  TYR A   1      -7.915 -28.453   9.614  1.00  0.00     0.275 HD
ENDBRANCH  86  87
BRANCH  86  91
ATOM     91  CB  TYR A   1      -5.305 -30.096   8.743  1.00  0.00     0.081 C 
BRANCH  91  92
ATOM     92  CG  TYR A   1      -5.135 -31.586   8.982  1.00  0.00    -0.056 A 
ATOM     93  CD2 TYR A   1      -3.861 -32.088   9.333  1.00  0.00     0.010 A 
ATOM     94  CE2 TYR A   1      -3.679 -33.469   9.529  1.00  0.00     0.037 A 
ATOM     95  CZ  TYR A   1      -4.773 -34.352   9.388  1.00  0.00     0.065 A 
ATOM     96  CE1 TYR A   1      -6.050 -33.849   9.074  1.00  0.00     0.037 A 
ATOM     97  CD1 TYR A   1      -6.239 -32.463   8.871  1.00  0.00     0.010 A 
BRANCH  95  98
ATOM     98  OH  TYR A   1      -4.603 -35.684   9.558  1.00  0.00    -0.361 OA
ATOM     99  HH  TYR A   1      -5.061 -36.189   8.885  1.00  0.00     0.217 HD
ENDBRANCH  95  98
ENDBRANCH  91  92
ENDBRANCH  86  91
ENDBRANCH  84  86
ENDBRANCH  77  82
ENDBRANCH  73  77
ENDBRANCH  68  70
ENDBRANCH  65  66
BRANCH  65 100
ATOM    100  CB  GLU A   4      -2.121 -19.738   8.153  1.00  0.00     0.045 C 
BRANCH 100 101
ATOM    101  CG  GLU A   4      -1.073 -19.382   9.221  1.00  0.00     0.116 C 
BRANCH 101 102
ATOM    102  CD  GLU A   4      -0.810 -17.868   9.278  1.00  0.00     0.172 C 
ATOM    103  OE2 GLU A   4      -1.732 -17.135   8.857  1.00  0.00    -0.648 OA
ATOM    104  OE1 GLU A   4       0.387 -17.502   9.397  1.00  0.00    -0.648 OA
ENDBRANCH 101 102
ENDBRANCH 100 101
ENDBRANCH  65 100
ENDBRANCH  63  65
ENDBRANCH  60  61
BRANCH  60 105
ATOM    105  CB  TYR A   5       1.268 -24.120   7.366  1.00  0.00     0.073 C 
BRANCH 105 106
ATOM    106  CG  TYR A   5       2.157 -25.355   7.465  1.00  0.00    -0.056 A 
ATOM    107  CD1 TYR A   5       3.564 -25.227   7.558  1.00  0.00     0.010 A 
ATOM    108  CE1 TYR A   5       4.362 -26.370   7.808  1.00  0.00     0.037 A 
ATOM    109  CZ  TYR A   5       3.757 -27.632   7.953  1.00  0.00     0.065 A 
ATOM    110  CE2 TYR A   5       2.358 -27.766   7.831  1.00  0.00     0.037 A 
ATOM    111  CD2 TYR A   5       1.560 -26.630   7.596  1.00  0.00     0.010 A 
BRANCH 109 112
ATOM    112  OH  TYR A   5       4.515 -28.720   8.220  1.00  0.00    -0.361 OA
ATOM    113  HH  TYR A   5       4.451 -29.340   7.490  1.00  0.00     0.217 HD
ENDBRANCH 109 112
ENDBRANCH 105 106
ENDBRANCH  60 105
ENDBRANCH   1  60
TORSDOF 38
ENDMDL
