MODEL 1
REMARK VINA RESULT:      -6.5      0.000      0.000
REMARK WARNING: 32 MAX_TORS EXCEEDED!!!
REMARK  42 active torsions:
REMARK  status: ('A' for Active; 'I' for Inactive)
REMARK    1  A    between atoms: CA_2  and  CB_3 
REMARK    2  A    between atoms: CA_2  and  C_11 
REMARK    3  A    between atoms: CB_3  and  CG_4 
REMARK       I    between atoms: C_11  and  N_13 
REMARK    4  A    between atoms: N_13  and  CA_14 
REMARK    5  A    between atoms: CA_14  and  CB_15 
REMARK    6  A    between atoms: CA_14  and  C_19 
REMARK    7  A    between atoms: CB_15  and  CG_16 
REMARK       I    between atoms: C_19  and  N_21 
REMARK    8  A    between atoms: CA_22  and  C_26 
REMARK       I    between atoms: C_26  and  N_28 
REMARK    9  A    between atoms: N_28  and  CA_29 
REMARK   10  A    between atoms: CA_29  and  C_35 
REMARK   11  A    between atoms: CA_29  and  CB_30 
REMARK   12  A    between atoms: CB_30  and  CG_31 
REMARK   13  A    between atoms: CG_31  and  CD_32 
REMARK       I    between atoms: C_35  and  N_37 
REMARK   14  A    between atoms: N_37  and  CA_38 
REMARK   15  A    between atoms: CA_38  and  CB_39 
REMARK   16  A    between atoms: CA_38  and  C_47 
REMARK   17  A    between atoms: CB_39  and  CG_40 
REMARK       I    between atoms: C_47  and  N_49 
REMARK   18  A    between atoms: N_49  and  CA_50 
REMARK   19  A    between atoms: CA_50  and  CB_51 
REMARK   20  A    between atoms: CA_50  and  C_58 
REMARK   21  A    between atoms: CB_51  and  CG_52 
REMARK   22  A    between atoms: CG_52  and  CD_53 
REMARK   23  A    between atoms: CD_53  and  NE_54 
REMARK       I    between atoms: C_58  and  N_60 
REMARK   24  A    between atoms: N_60  and  CA_61 
REMARK   25  A    between atoms: CA_61  and  C_66 
REMARK   26  A    between atoms: CA_61  and  CB_62 
REMARK   27  A    between atoms: CB_62  and  CG_63 
REMARK       I    between atoms: C_66  and  N_68 
REMARK   28  A    between atoms: N_68  and  CA_69 
REMARK   29  A    between atoms: CA_69  and  CB_70 
REMARK   30  A    between atoms: CA_69  and  C_77 
REMARK   31  A    between atoms: CB_70  and  CG_71 
REMARK       I    between atoms: C_77  and  N_79 
REMARK   32  A    between atoms: N_79  and  CA_80 
REMARK   33  A    between atoms: CA_80  and  CB_81 
REMARK   34  A    between atoms: CA_80  and  C_91 
REMARK   35  A    between atoms: CB_81  and  CG_82 
REMARK       I    between atoms: C_91  and  N_93 
REMARK   36  A    between atoms: N_93  and  CA_94 
REMARK   37  A    between atoms: CA_94  and  C_95 
REMARK       I    between atoms: C_95  and  N_97 
REMARK   38  A    between atoms: N_97  and  CA_98 
REMARK   39  A    between atoms: CA_98  and  C_101 
REMARK   40  A    between atoms: CA_98  and  CB_99 
REMARK       I    between atoms: C_101  and  N_103 
REMARK   41  A    between atoms: N_103  and  CA_104 
REMARK   42  A    between atoms: CA_104  and  C_105 
ROOT
ATOM      1  CA  ARG     6      -3.093   7.931   5.365  1.00  0.00     0.186 C 
ENDROOT
BRANCH   1   2
ATOM      2  N   ARG     6      -3.533   8.685   4.168  1.00  0.00    -0.229 NA
ATOM      3  C   TYR     5      -2.771   9.623   3.590  1.00  0.00     0.275 C 
ATOM      4  O   TYR     5      -1.643   9.900   4.000  1.00  0.00    -0.268 OA
BRANCH   3   5
ATOM      5  CA  TYR     5      -3.315  10.277   2.310  1.00  0.00     0.191 C 
BRANCH   5   6
ATOM      6  N   TYR     5      -4.463  11.189   2.551  1.00  0.00    -0.228 NA
ATOM      7  C   GLU     4      -4.464  12.130   3.510  1.00  0.00     0.274 C 
ATOM      8  O   GLU     4      -3.468  12.405   4.167  1.00  0.00    -0.268 OA
BRANCH   7   9
ATOM      9  CA  GLU     4      -5.680  13.078   3.527  1.00  0.00     0.187 C 
BRANCH   9  10
ATOM     10  CB  GLU     4      -6.362  13.077   2.148  1.00  0.00     0.045 C 
BRANCH  10  11
ATOM     11  CG  GLU     4      -7.080  14.382   1.740  1.00  0.00     0.100 C 
BRANCH  11  12
ATOM     12  CD  GLU     4      -8.477  14.545   2.339  1.00  0.00     0.185 C 
ATOM     13  OE1 GLU     4      -9.429  13.970   1.749  1.00  0.00    -0.647 OA
ATOM     14  OE2 GLU     4      -8.672  15.559   3.039  1.00  0.00    -0.647 OA
ENDBRANCH  11  12
ENDBRANCH  10  11
ENDBRANCH   9  10
BRANCH   9  15
ATOM     15  N   GLU     4      -5.330  14.468   3.878  1.00  0.00    -0.229 NA
ATOM     16  C   PRO     3      -5.595  15.121   5.003  1.00  0.00     0.272 C 
ATOM     17  O   PRO     3      -5.846  14.557   6.069  1.00  0.00    -0.269 OA
BRANCH  16  18
ATOM     18  CA  PRO     3      -5.093  16.566   5.054  1.00  0.00     0.165 C 
ATOM     19  N   PRO     3      -3.625  16.717   4.965  1.00  0.00    -0.312 N 
ATOM     20  CD  PRO     3      -3.294  17.880   4.103  1.00  0.00     0.105 C 
ATOM     21  C   ASP     2      -2.751  15.998   5.692  1.00  0.00     0.257 C 
ATOM     22  CG  PRO     3      -4.648  18.561   3.848  1.00  0.00     0.027 C 
ATOM     23  CB  PRO     3      -5.650  17.412   3.911  1.00  0.00     0.034 C 
ATOM     24  O   ASP     2      -3.146  15.306   6.643  1.00  0.00    -0.270 OA
BRANCH  21  25
ATOM     25  CA  ASP     2      -1.239  16.301   5.581  1.00  0.00     0.195 C 
BRANCH  25  26
ATOM     26  CB  ASP     2      -0.804  17.758   5.885  1.00  0.00     0.132 C 
BRANCH  26  27
ATOM     27  CG  ASP     2      -0.301  17.877   7.336  1.00  0.00     0.188 C 
ATOM     28  OD2 ASP     2       0.703  17.175   7.620  1.00  0.00    -0.647 OA
ATOM     29  OD1 ASP     2      -1.162  18.141   8.212  1.00  0.00    -0.647 OA
ENDBRANCH  26  27
ENDBRANCH  25  26
BRANCH  25  30
ATOM     30  N   ASP     2      -0.732  16.097   4.213  1.00  0.00    -0.228 NA
ATOM     31  C   TYR     1       0.526  16.040   3.843  1.00  0.00     0.289 C 
ATOM     32  O   TYR     1       1.530  16.007   4.562  1.00  0.00    -0.268 OA
BRANCH  31  33
ATOM     33  CA  TYR     1       0.675  16.037   2.325  1.00  0.00     0.385 C 
ATOM     34  N   TYR     1      -0.516  16.689   1.754  1.00  0.00     0.626 N 
BRANCH  33  35
ATOM     35  CB  TYR     1       1.965  16.783   1.993  1.00  0.00     0.075 C 
BRANCH  35  36
ATOM     36  CG  TYR     1       2.978  15.919   1.227  1.00  0.00    -0.019 A 
ATOM     37  CD2 TYR     1       3.939  16.489   0.406  1.00  0.00    -0.002 A 
ATOM     38  CE2 TYR     1       4.925  15.699  -0.166  1.00  0.00     0.027 A 
ATOM     39  CZ  TYR     1       4.933  14.328   0.091  1.00  0.00     0.131 A 
ATOM     40  CE1 TYR     1       3.947  13.761   0.878  1.00  0.00     0.027 A 
ATOM     41  OH  TYR     1       5.980  13.572  -0.295  1.00  0.00    -0.190 OA
ATOM     42  CD1 TYR     1       2.961  14.550   1.449  1.00  0.00    -0.002 A 
ENDBRANCH  35  36
ENDBRANCH  33  35
ENDBRANCH  31  33
ENDBRANCH  25  30
ENDBRANCH  21  25
ENDBRANCH  16  18
ENDBRANCH   9  15
ENDBRANCH   7   9
ENDBRANCH   5   6
BRANCH   5  43
ATOM     43  CB  TYR     5      -2.200  11.022   1.557  1.00  0.00     0.060 C 
BRANCH  43  44
ATOM     44  CG  TYR     5      -2.751  12.132   0.647  1.00  0.00    -0.020 A 
ATOM     45  CD2 TYR     5      -3.639  11.831  -0.378  1.00  0.00    -0.002 A 
ATOM     46  CE2 TYR     5      -4.138  12.844  -1.191  1.00  0.00     0.027 A 
ATOM     47  CZ  TYR     5      -3.748  14.158  -0.980  1.00  0.00     0.131 A 
ATOM     48  CE1 TYR     5      -2.874  14.470   0.054  1.00  0.00     0.027 A 
ATOM     49  OH  TYR     5      -4.117  15.125  -1.849  1.00  0.00    -0.190 OA
ATOM     50  CD1 TYR     5      -2.368  13.452   0.863  1.00  0.00    -0.002 A 
ENDBRANCH  43  44
ENDBRANCH   5  43
ENDBRANCH   3   5
ENDBRANCH   1   2
BRANCH   1  51
ATOM     51  CB  ARG     6      -3.555   8.570   6.671  1.00  0.00     0.036 C 
BRANCH  51  52
ATOM     52  CG  ARG     6      -4.997   9.083   6.629  1.00  0.00     0.029 C 
BRANCH  52  53
ATOM     53  CD  ARG     6      -5.030  10.593   6.843  1.00  0.00     0.145 C 
BRANCH  53  54
ATOM     54  NE  ARG     6      -6.394  11.121   6.672  1.00  0.00    -0.083 NA
ATOM     55  CZ  ARG     6      -7.083  11.818   7.596  1.00  0.00     0.782 C 
ATOM     56  NH2 ARG     6      -8.348  12.178   7.368  1.00  0.00     0.063 N 
ATOM     57  NH1 ARG     6      -6.541  12.081   8.780  1.00  0.00     0.063 N 
ENDBRANCH  53  54
ENDBRANCH  52  53
ENDBRANCH  51  52
ENDBRANCH   1  51
BRANCH   1  58
ATOM     58  C   ARG     6      -3.614   6.489   5.374  1.00  0.00     0.274 C 
ATOM     59  N   ASN     7      -3.632   5.889   6.561  1.00  0.00    -0.228 NA
ATOM     60  O   ARG     6      -3.975   5.973   4.315  1.00  0.00    -0.268 OA
BRANCH  59  61
ATOM     61  CA  ASN     7      -4.189   4.539   6.784  1.00  0.00     0.196 C 
BRANCH  61  62
ATOM     62  C   ASN     7      -5.730   4.551   6.762  1.00  0.00     0.275 C 
ATOM     63  N   PHE     8      -6.339   3.465   6.261  1.00  0.00    -0.228 NA
ATOM     64  O   ASN     7      -6.289   5.320   7.520  1.00  0.00    -0.268 OA
BRANCH  63  65
ATOM     65  CA  PHE     8      -7.807   3.253   6.234  1.00  0.00     0.191 C 
BRANCH  65  66
ATOM     66  CB  PHE     8      -8.206   2.839   4.811  1.00  0.00     0.060 C 
BRANCH  66  67
ATOM     67  CG  PHE     8      -7.598   1.503   4.343  1.00  0.00    -0.020 A 
ATOM     68  CD1 PHE     8      -8.431   0.454   3.977  1.00  0.00    -0.004 A 
ATOM     69  CE1 PHE     8      -7.883  -0.787   3.652  1.00  0.00    -0.000 A 
ATOM     70  CZ  PHE     8      -6.508  -0.960   3.681  1.00  0.00    -0.000 A 
ATOM     71  CE2 PHE     8      -5.672   0.093   4.034  1.00  0.00    -0.000 A 
ATOM     72  CD2 PHE     8      -6.220   1.334   4.359  1.00  0.00    -0.004 A 
ENDBRANCH  66  67
ENDBRANCH  65  66
BRANCH  65  73
ATOM     73  C   PHE     8      -8.342   2.259   7.289  1.00  0.00     0.275 C 
ATOM     74  N   TRP     9      -9.661   2.059   7.300  1.00  0.00    -0.228 NA
ATOM     75  O   PHE     8      -7.629   1.878   8.220  1.00  0.00    -0.268 OA
BRANCH  74  76
ATOM     76  CA  TRP     9     -10.296   1.042   8.175  1.00  0.00     0.191 C 
BRANCH  76  77
ATOM     77  CB  TRP     9     -11.824   1.183   8.071  1.00  0.00     0.062 C 
BRANCH  77  78
ATOM     78  CG  TRP     9     -12.421   0.409   6.896  1.00  0.00     0.001 A 
ATOM     79  CD1 TRP     9     -12.871  -0.841   6.933  1.00  0.00     0.095 A 
ATOM     80  NE1 TRP     9     -13.040  -1.294   5.697  1.00  0.00    -0.244 NA
ATOM     81  CE2 TRP     9     -12.723  -0.343   4.830  1.00  0.00     0.081 A 
ATOM     82  CD2 TRP     9     -12.307   0.762   5.555  1.00  0.00     0.015 A 
ATOM     83  CZ2 TRP     9     -12.638  -0.322   3.438  1.00  0.00     0.019 A 
ATOM     84  CE3 TRP     9     -11.794   1.880   4.914  1.00  0.00     0.001 A 
ATOM     85  CZ3 TRP     9     -11.696   1.899   3.527  1.00  0.00     0.000 A 
ATOM     86  CH2 TRP     9     -12.138   0.800   2.793  1.00  0.00     0.002 A 
ENDBRANCH  77  78
ENDBRANCH  76  77
BRANCH  76  87
ATOM     87  C   TRP     9      -9.838  -0.410   7.908  1.00  0.00     0.275 C 
ATOM     88  O   TRP     9      -9.418  -0.745   6.805  1.00  0.00    -0.268 OA
ATOM     89  N   GLY    10      -9.832  -1.227   8.960  1.00  0.00    -0.226 NA
BRANCH  89  90
ATOM     90  CA  GLY    10      -9.385  -2.647   8.916  1.00  0.00     0.218 C 
BRANCH  90  91
ATOM     91  C   GLY    10     -10.019  -3.529   7.828  1.00  0.00     0.277 C 
ATOM     92  N   CYS    11      -9.160  -4.044   6.950  1.00  0.00    -0.228 NA
ATOM     93  O   GLY    10     -11.237  -3.587   7.705  1.00  0.00    -0.268 OA
BRANCH  92  94
ATOM     94  CA  CYS    11      -9.487  -4.941   5.819  1.00  0.00     0.198 C 
BRANCH  94  95
ATOM     95  C   CYS    11      -8.466  -6.095   5.813  1.00  0.00     0.275 C 
ATOM     96  O   CYS    11      -8.237  -6.683   4.762  1.00  0.00    -0.268 OA
ATOM     97  N   GLY    12      -8.048  -6.508   7.001  1.00  0.00    -0.225 NA
BRANCH  97  98
ATOM     98  CA  GLY    12      -7.087  -7.608   7.175  1.00  0.00     0.226 C 
BRANCH  98  99
ATOM     99  C   GLY    12      -5.799  -7.023   7.799  1.00  0.00     0.211 C 
ATOM    100  O1  GLY    12      -4.738  -7.674   7.618  1.00  0.00    -0.646 OA
ATOM    101  O2  GLY    12      -5.888  -5.939   8.404  1.00  0.00    -0.646 OA
ENDBRANCH  98  99
ENDBRANCH  97  98
ENDBRANCH  94  95
BRANCH  94 102
ATOM    102  CB  CYS    11      -9.289  -4.210   4.493  1.00  0.00     0.103 C 
ATOM    103  SG  CYS    11     -10.805  -3.544   3.703  1.00  0.00    -0.080 SA
ENDBRANCH  94 102
ENDBRANCH  92  94
ENDBRANCH  90  91
ENDBRANCH  89  90
ENDBRANCH  76  87
ENDBRANCH  74  76
ENDBRANCH  65  73
ENDBRANCH  63  65
ENDBRANCH  61  62
BRANCH  61 104
ATOM    104  CB  ASN     7      -3.667   3.929   8.091  1.00  0.00     0.126 C 
BRANCH 104 105
ATOM    105  CG  ASN     7      -2.242   3.350   8.012  1.00  0.00     0.276 C 
ATOM    106  ND2 ASN     7      -2.157   2.050   7.845  1.00  0.00    -0.107 N 
ATOM    107  OD1 ASN     7      -1.215   3.975   8.244  1.00  0.00    -0.269 OA
ENDBRANCH 104 105
ENDBRANCH  61 104
ENDBRANCH  59  61
ENDBRANCH   1  58
TORSDOF 42
ENDMDL
MODEL 2
REMARK VINA RESULT:      -5.9      8.427     17.767
REMARK WARNING: 32 MAX_TORS EXCEEDED!!!
REMARK  42 active torsions:
REMARK  status: ('A' for Active; 'I' for Inactive)
REMARK    1  A    between atoms: CA_2  and  CB_3 
REMARK    2  A    between atoms: CA_2  and  C_11 
REMARK    3  A    between atoms: CB_3  and  CG_4 
REMARK       I    between atoms: C_11  and  N_13 
REMARK    4  A    between atoms: N_13  and  CA_14 
REMARK    5  A    between atoms: CA_14  and  CB_15 
REMARK    6  A    between atoms: CA_14  and  C_19 
REMARK    7  A    between atoms: CB_15  and  CG_16 
REMARK       I    between atoms: C_19  and  N_21 
REMARK    8  A    between atoms: CA_22  and  C_26 
REMARK       I    between atoms: C_26  and  N_28 
REMARK    9  A    between atoms: N_28  and  CA_29 
REMARK   10  A    between atoms: CA_29  and  C_35 
REMARK   11  A    between atoms: CA_29  and  CB_30 
REMARK   12  A    between atoms: CB_30  and  CG_31 
REMARK   13  A    between atoms: CG_31  and  CD_32 
REMARK       I    between atoms: C_35  and  N_37 
REMARK   14  A    between atoms: N_37  and  CA_38 
REMARK   15  A    between atoms: CA_38  and  CB_39 
REMARK   16  A    between atoms: CA_38  and  C_47 
REMARK   17  A    between atoms: CB_39  and  CG_40 
REMARK       I    between atoms: C_47  and  N_49 
REMARK   18  A    between atoms: N_49  and  CA_50 
REMARK   19  A    between atoms: CA_50  and  CB_51 
REMARK   20  A    between atoms: CA_50  and  C_58 
REMARK   21  A    between atoms: CB_51  and  CG_52 
REMARK   22  A    between atoms: CG_52  and  CD_53 
REMARK   23  A    between atoms: CD_53  and  NE_54 
REMARK       I    between atoms: C_58  and  N_60 
REMARK   24  A    between atoms: N_60  and  CA_61 
REMARK   25  A    between atoms: CA_61  and  C_66 
REMARK   26  A    between atoms: CA_61  and  CB_62 
REMARK   27  A    between atoms: CB_62  and  CG_63 
REMARK       I    between atoms: C_66  and  N_68 
REMARK   28  A    between atoms: N_68  and  CA_69 
REMARK   29  A    between atoms: CA_69  and  CB_70 
REMARK   30  A    between atoms: CA_69  and  C_77 
REMARK   31  A    between atoms: CB_70  and  CG_71 
REMARK       I    between atoms: C_77  and  N_79 
REMARK   32  A    between atoms: N_79  and  CA_80 
REMARK   33  A    between atoms: CA_80  and  CB_81 
REMARK   34  A    between atoms: CA_80  and  C_91 
REMARK   35  A    between atoms: CB_81  and  CG_82 
REMARK       I    between atoms: C_91  and  N_93 
REMARK   36  A    between atoms: N_93  and  CA_94 
REMARK   37  A    between atoms: CA_94  and  C_95 
REMARK       I    between atoms: C_95  and  N_97 
REMARK   38  A    between atoms: N_97  and  CA_98 
REMARK   39  A    between atoms: CA_98  and  C_101 
REMARK   40  A    between atoms: CA_98  and  CB_99 
REMARK       I    between atoms: C_101  and  N_103 
REMARK   41  A    between atoms: N_103  and  CA_104 
REMARK   42  A    between atoms: CA_104  and  C_105 
ROOT
ATOM      1  CA  ARG     6     -11.646  -8.375   6.286  1.00  0.00     0.186 C 
ENDROOT
BRANCH   1   2
ATOM      2  N   ARG     6     -11.024  -7.316   5.457  1.00  0.00    -0.229 NA
ATOM      3  C   TYR     5     -11.270  -6.014   5.651  1.00  0.00     0.275 C 
ATOM      4  O   TYR     5     -12.008  -5.611   6.551  1.00  0.00    -0.268 OA
BRANCH   3   5
ATOM      5  CA  TYR     5     -10.502  -5.016   4.770  1.00  0.00     0.191 C 
BRANCH   5   6
ATOM      6  N   TYR     5     -11.384  -4.167   3.928  1.00  0.00    -0.228 NA
ATOM      7  C   GLU     4     -11.381  -4.211   2.586  1.00  0.00     0.274 C 
ATOM      8  O   GLU     4     -10.755  -5.052   1.953  1.00  0.00    -0.268 OA
BRANCH   7   9
ATOM      9  CA  GLU     4     -12.460  -3.364   1.879  1.00  0.00     0.187 C 
BRANCH   9  10
ATOM     10  CB  GLU     4     -12.385  -3.587   0.360  1.00  0.00     0.045 C 
BRANCH  10  11
ATOM     11  CG  GLU     4     -13.552  -3.012  -0.474  1.00  0.00     0.100 C 
BRANCH  11  12
ATOM     12  CD  GLU     4     -14.406  -4.070  -1.172  1.00  0.00     0.185 C 
ATOM     13  OE1 GLU     4     -15.079  -4.844  -0.443  1.00  0.00    -0.647 OA
ATOM     14  OE2 GLU     4     -14.047  -4.414  -2.316  1.00  0.00    -0.647 OA
ENDBRANCH  11  12
ENDBRANCH  10  11
ENDBRANCH   9  10
BRANCH   9  15
ATOM     15  N   GLU     4     -12.335  -1.919   2.150  1.00  0.00    -0.229 NA
ATOM     16  C   PRO     3     -13.084  -1.167   2.947  1.00  0.00     0.272 C 
ATOM     17  O   PRO     3     -13.764  -1.625   3.867  1.00  0.00    -0.269 OA
BRANCH  16  18
ATOM     18  CA  PRO     3     -12.693   0.311   3.008  1.00  0.00     0.165 C 
ATOM     19  N   PRO     3     -11.237   0.569   3.011  1.00  0.00    -0.312 N 
ATOM     20  CD  PRO     3     -10.936   1.744   2.154  1.00  0.00     0.105 C 
ATOM     21  C   ASP     2     -10.361  -0.077   3.803  1.00  0.00     0.257 C 
ATOM     22  CG  PRO     3     -12.316   2.321   1.804  1.00  0.00     0.027 C 
ATOM     23  CB  PRO     3     -13.235   1.103   1.820  1.00  0.00     0.034 C 
ATOM     24  O   ASP     2     -10.766  -0.786   4.736  1.00  0.00    -0.270 OA
BRANCH  21  25
ATOM     25  CA  ASP     2      -8.872   0.335   3.784  1.00  0.00     0.195 C 
BRANCH  25  26
ATOM     26  CB  ASP     2      -7.838  -0.809   3.952  1.00  0.00     0.132 C 
BRANCH  26  27
ATOM     27  CG  ASP     2      -7.750  -1.648   2.664  1.00  0.00     0.188 C 
ATOM     28  OD2 ASP     2      -8.021  -2.869   2.794  1.00  0.00    -0.647 OA
ATOM     29  OD1 ASP     2      -6.923  -1.268   1.798  1.00  0.00    -0.647 OA
ENDBRANCH  26  27
ENDBRANCH  25  26
BRANCH  25  30
ATOM     30  N   ASP     2      -8.533   1.237   4.898  1.00  0.00    -0.228 NA
ATOM     31  C   TYR     1      -8.077   2.464   4.803  1.00  0.00     0.289 C 
ATOM     32  O   TYR     1      -7.967   3.158   3.787  1.00  0.00    -0.268 OA
BRANCH  31  33
ATOM     33  CA  TYR     1      -7.632   3.014   6.154  1.00  0.00     0.385 C 
ATOM     34  N   TYR     1      -8.707   2.749   7.125  1.00  0.00     0.626 N 
BRANCH  33  35
ATOM     35  CB  TYR     1      -6.326   2.314   6.523  1.00  0.00     0.075 C 
BRANCH  35  36
ATOM     36  CG  TYR     1      -5.121   3.267   6.554  1.00  0.00    -0.019 A 
ATOM     37  CD2 TYR     1      -4.439   3.607   5.396  1.00  0.00    -0.002 A 
ATOM     38  CE2 TYR     1      -3.444   4.572   5.430  1.00  0.00     0.027 A 
ATOM     39  CZ  TYR     1      -3.135   5.188   6.642  1.00  0.00     0.131 A 
ATOM     40  CE1 TYR     1      -3.792   4.815   7.801  1.00  0.00     0.027 A 
ATOM     41  OH  TYR     1      -2.310   6.254   6.671  1.00  0.00    -0.190 OA
ATOM     42  CD1 TYR     1      -4.787   3.850   7.767  1.00  0.00    -0.002 A 
ENDBRANCH  35  36
ENDBRANCH  33  35
ENDBRANCH  31  33
ENDBRANCH  25  30
ENDBRANCH  21  25
ENDBRANCH  16  18
ENDBRANCH   9  15
ENDBRANCH   7   9
ENDBRANCH   5   6
BRANCH   5  43
ATOM     43  CB  TYR     5      -9.574  -4.133   5.620  1.00  0.00     0.060 C 
BRANCH  43  44
ATOM     44  CG  TYR     5      -8.627  -4.962   6.504  1.00  0.00    -0.020 A 
ATOM     45  CD2 TYR     5      -7.807  -5.934   5.944  1.00  0.00    -0.002 A 
ATOM     46  CE2 TYR     5      -6.948  -6.674   6.751  1.00  0.00     0.027 A 
ATOM     47  CZ  TYR     5      -6.909  -6.443   8.117  1.00  0.00     0.131 A 
ATOM     48  CE1 TYR     5      -7.713  -5.460   8.683  1.00  0.00     0.027 A 
ATOM     49  OH  TYR     5      -6.184  -7.249   8.923  1.00  0.00    -0.190 OA
ATOM     50  CD1 TYR     5      -8.580  -4.725   7.873  1.00  0.00    -0.002 A 
ENDBRANCH  43  44
ENDBRANCH   5  43
ENDBRANCH   3   5
ENDBRANCH   1   2
BRANCH   1  51
ATOM     51  CB  ARG     6     -11.392  -8.186   7.778  1.00  0.00     0.036 C 
BRANCH  51  52
ATOM     52  CG  ARG     6     -10.142  -8.910   8.285  1.00  0.00     0.029 C 
BRANCH  52  53
ATOM     53  CD  ARG     6      -9.408  -9.578   7.126  1.00  0.00     0.145 C 
BRANCH  53  54
ATOM     54  NE  ARG     6      -8.740 -10.814   7.567  1.00  0.00    -0.083 NA
ATOM     55  CZ  ARG     6      -8.397 -11.843   6.770  1.00  0.00     0.782 C 
ATOM     56  NH2 ARG     6      -7.870 -12.955   7.287  1.00  0.00     0.063 N 
ATOM     57  NH1 ARG     6      -8.659 -11.800   5.468  1.00  0.00     0.063 N 
ENDBRANCH  53  54
ENDBRANCH  52  53
ENDBRANCH  51  52
ENDBRANCH   1  51
BRANCH   1  58
ATOM     58  C   ARG     6     -13.168  -8.443   6.106  1.00  0.00     0.274 C 
ATOM     59  N   ASN     7     -13.602  -8.408   4.849  1.00  0.00    -0.228 NA
ATOM     60  O   ARG     6     -13.889  -8.520   7.102  1.00  0.00    -0.268 OA
BRANCH  59  61
ATOM     61  CA  ASN     7     -15.023  -8.560   4.473  1.00  0.00     0.196 C 
BRANCH  61  62
ATOM     62  C   ASN     7     -15.178  -9.302   3.131  1.00  0.00     0.275 C 
ATOM     63  N   PHE     8     -14.127 -10.021   2.709  1.00  0.00    -0.228 NA
ATOM     64  O   ASN     7     -16.311  -9.512   2.742  1.00  0.00    -0.268 OA
BRANCH  63  65
ATOM     65  CA  PHE     8     -14.113 -10.869   1.492  1.00  0.00     0.191 C 
BRANCH  65  66
ATOM     66  CB  PHE     8     -12.755 -10.693   0.799  1.00  0.00     0.060 C 
BRANCH  66  67
ATOM     67  CG  PHE     8     -12.773  -9.729  -0.402  1.00  0.00    -0.020 A 
ATOM     68  CD1 PHE     8     -11.655  -9.615  -1.216  1.00  0.00    -0.004 A 
ATOM     69  CE1 PHE     8     -11.635  -8.669  -2.240  1.00  0.00    -0.000 A 
ATOM     70  CZ  PHE     8     -12.739  -7.858  -2.449  1.00  0.00    -0.000 A 
ATOM     71  CE2 PHE     8     -13.866  -7.979  -1.643  1.00  0.00    -0.000 A 
ATOM     72  CD2 PHE     8     -13.886  -8.926  -0.619  1.00  0.00    -0.004 A 
ENDBRANCH  66  67
ENDBRANCH  65  66
BRANCH  65  73
ATOM     73  C   PHE     8     -14.444 -12.359   1.731  1.00  0.00     0.275 C 
ATOM     74  N   TRP     9     -13.487 -13.236   1.422  1.00  0.00    -0.228 NA
ATOM     75  O   PHE     8     -15.601 -12.725   1.948  1.00  0.00    -0.268 OA
BRANCH  74  76
ATOM     76  CA  TRP     9     -13.621 -14.684   1.715  1.00  0.00     0.191 C 
BRANCH  76  77
ATOM     77  CB  TRP     9     -12.888 -15.481   0.624  1.00  0.00     0.062 C 
BRANCH  77  78
ATOM     78  CG  TRP     9     -13.749 -16.578  -0.002  1.00  0.00     0.001 A 
ATOM     79  CD1 TRP     9     -15.074 -16.665   0.067  1.00  0.00     0.095 A 
ATOM     80  NE1 TRP     9     -15.465 -17.872  -0.320  1.00  0.00    -0.244 NA
ATOM     81  CE2 TRP     9     -14.407 -18.590  -0.667  1.00  0.00     0.081 A 
ATOM     82  CD2 TRP     9     -13.283 -17.804  -0.466  1.00  0.00     0.015 A 
ATOM     83  CZ2 TRP     9     -14.252 -19.921  -1.054  1.00  0.00     0.019 A 
ATOM     84  CE3 TRP     9     -12.010 -18.329  -0.629  1.00  0.00     0.001 A 
ATOM     85  CZ3 TRP     9     -11.853 -19.660  -1.002  1.00  0.00     0.000 A 
ATOM     86  CH2 TRP     9     -12.980 -20.446  -1.232  1.00  0.00     0.002 A 
ENDBRANCH  77  78
ENDBRANCH  76  77
BRANCH  76  87
ATOM     87  C   TRP     9     -13.159 -15.098   3.131  1.00  0.00     0.275 C 
ATOM     88  O   TRP     9     -12.225 -14.523   3.682  1.00  0.00    -0.268 OA
ATOM     89  N   GLY    10     -13.890 -16.031   3.740  1.00  0.00    -0.226 NA
BRANCH  89  90
ATOM     90  CA  GLY    10     -13.633 -16.531   5.118  1.00  0.00     0.218 C 
BRANCH  90  91
ATOM     91  C   GLY    10     -12.301 -17.266   5.339  1.00  0.00     0.277 C 
ATOM     92  N   CYS    11     -12.129 -18.356   4.593  1.00  0.00    -0.228 NA
ATOM     93  O   GLY    10     -11.559 -16.948   6.261  1.00  0.00    -0.268 OA
BRANCH  92  94
ATOM     94  CA  CYS    11     -10.941 -19.239   4.583  1.00  0.00     0.198 C 
BRANCH  94  95
ATOM     95  C   CYS    11     -10.742 -19.756   3.145  1.00  0.00     0.275 C 
ATOM     96  O   CYS    11     -11.728 -20.007   2.460  1.00  0.00    -0.268 OA
ATOM     97  N   GLY    12      -9.503 -20.086   2.811  1.00  0.00    -0.225 NA
BRANCH  97  98
ATOM     98  CA  GLY    12      -9.143 -20.611   1.484  1.00  0.00     0.226 C 
BRANCH  98  99
ATOM     99  C   GLY    12      -7.817 -21.396   1.625  1.00  0.00     0.211 C 
ATOM    100  O1  GLY    12      -6.891 -21.085   0.834  1.00  0.00    -0.646 OA
ATOM    101  O2  GLY    12      -7.743 -22.250   2.527  1.00  0.00    -0.646 OA
ENDBRANCH  98  99
ENDBRANCH  97  98
ENDBRANCH  94  95
BRANCH  94 102
ATOM    102  CB  CYS    11     -11.200 -20.480   5.435  1.00  0.00     0.103 C 
ATOM    103  SG  CYS    11      -9.876 -20.938   6.619  1.00  0.00    -0.080 SA
ENDBRANCH  94 102
ENDBRANCH  92  94
ENDBRANCH  90  91
ENDBRANCH  89  90
ENDBRANCH  76  87
ENDBRANCH  74  76
ENDBRANCH  65  73
ENDBRANCH  63  65
ENDBRANCH  61  62
BRANCH  61 104
ATOM    104  CB  ASN     7     -15.737  -7.203   4.433  1.00  0.00     0.126 C 
BRANCH 104 105
ATOM    105  CG  ASN     7     -14.905  -6.052   3.839  1.00  0.00     0.276 C 
ATOM    106  ND2 ASN     7     -14.730  -5.007   4.615  1.00  0.00    -0.107 N 
ATOM    107  OD1 ASN     7     -14.539  -5.978   2.672  1.00  0.00    -0.269 OA
ENDBRANCH 104 105
ENDBRANCH  61 104
ENDBRANCH  59  61
ENDBRANCH   1  58
TORSDOF 42
ENDMDL
MODEL 3
REMARK VINA RESULT:      -5.8     24.333     32.460
REMARK WARNING: 32 MAX_TORS EXCEEDED!!!
REMARK  42 active torsions:
REMARK  status: ('A' for Active; 'I' for Inactive)
REMARK    1  A    between atoms: CA_2  and  CB_3 
REMARK    2  A    between atoms: CA_2  and  C_11 
REMARK    3  A    between atoms: CB_3  and  CG_4 
REMARK       I    between atoms: C_11  and  N_13 
REMARK    4  A    between atoms: N_13  and  CA_14 
REMARK    5  A    between atoms: CA_14  and  CB_15 
REMARK    6  A    between atoms: CA_14  and  C_19 
REMARK    7  A    between atoms: CB_15  and  CG_16 
REMARK       I    between atoms: C_19  and  N_21 
REMARK    8  A    between atoms: CA_22  and  C_26 
REMARK       I    between atoms: C_26  and  N_28 
REMARK    9  A    between atoms: N_28  and  CA_29 
REMARK   10  A    between atoms: CA_29  and  C_35 
REMARK   11  A    between atoms: CA_29  and  CB_30 
REMARK   12  A    between atoms: CB_30  and  CG_31 
REMARK   13  A    between atoms: CG_31  and  CD_32 
REMARK       I    between atoms: C_35  and  N_37 
REMARK   14  A    between atoms: N_37  and  CA_38 
REMARK   15  A    between atoms: CA_38  and  CB_39 
REMARK   16  A    between atoms: CA_38  and  C_47 
REMARK   17  A    between atoms: CB_39  and  CG_40 
REMARK       I    between atoms: C_47  and  N_49 
REMARK   18  A    between atoms: N_49  and  CA_50 
REMARK   19  A    between atoms: CA_50  and  CB_51 
REMARK   20  A    between atoms: CA_50  and  C_58 
REMARK   21  A    between atoms: CB_51  and  CG_52 
REMARK   22  A    between atoms: CG_52  and  CD_53 
REMARK   23  A    between atoms: CD_53  and  NE_54 
REMARK       I    between atoms: C_58  and  N_60 
REMARK   24  A    between atoms: N_60  and  CA_61 
REMARK   25  A    between atoms: CA_61  and  C_66 
REMARK   26  A    between atoms: CA_61  and  CB_62 
REMARK   27  A    between atoms: CB_62  and  CG_63 
REMARK       I    between atoms: C_66  and  N_68 
REMARK   28  A    between atoms: N_68  and  CA_69 
REMARK   29  A    between atoms: CA_69  and  CB_70 
REMARK   30  A    between atoms: CA_69  and  C_77 
REMARK   31  A    between atoms: CB_70  and  CG_71 
REMARK       I    between atoms: C_77  and  N_79 
REMARK   32  A    between atoms: N_79  and  CA_80 
REMARK   33  A    between atoms: CA_80  and  CB_81 
REMARK   34  A    between atoms: CA_80  and  C_91 
REMARK   35  A    between atoms: CB_81  and  CG_82 
REMARK       I    between atoms: C_91  and  N_93 
REMARK   36  A    between atoms: N_93  and  CA_94 
REMARK   37  A    between atoms: CA_94  and  C_95 
REMARK       I    between atoms: C_95  and  N_97 
REMARK   38  A    between atoms: N_97  and  CA_98 
REMARK   39  A    between atoms: CA_98  and  C_101 
REMARK   40  A    between atoms: CA_98  and  CB_99 
REMARK       I    between atoms: C_101  and  N_103 
REMARK   41  A    between atoms: N_103  and  CA_104 
REMARK   42  A    between atoms: CA_104  and  C_105 
ROOT
ATOM      1  CA  ARG     6      10.268 -17.842   2.193  1.00  0.00     0.186 C 
ENDROOT
BRANCH   1   2
ATOM      2  N   ARG     6      11.382 -16.933   2.550  1.00  0.00    -0.229 NA
ATOM      3  C   TYR     5      11.515 -15.714   2.011  1.00  0.00     0.275 C 
ATOM      4  O   TYR     5      10.703 -15.258   1.205  1.00  0.00    -0.268 OA
BRANCH   3   5
ATOM      5  CA  TYR     5      12.673 -14.843   2.524  1.00  0.00     0.191 C 
BRANCH   5   6
ATOM      6  N   TYR     5      13.665 -14.497   1.473  1.00  0.00    -0.228 NA
ATOM      7  C   GLU     4      14.982 -14.729   1.602  1.00  0.00     0.274 C 
ATOM      8  O   GLU     4      15.451 -15.370   2.534  1.00  0.00    -0.268 OA
BRANCH   7   9
ATOM      9  CA  GLU     4      15.846 -14.437   0.358  1.00  0.00     0.187 C 
BRANCH   9  10
ATOM     10  CB  GLU     4      15.947 -15.698  -0.515  1.00  0.00     0.045 C 
BRANCH  10  11
ATOM     11  CG  GLU     4      16.919 -16.793  -0.023  1.00  0.00     0.100 C 
BRANCH  11  12
ATOM     12  CD  GLU     4      16.248 -18.124   0.313  1.00  0.00     0.185 C 
ATOM     13  OE1 GLU     4      16.935 -19.170   0.172  1.00  0.00    -0.647 OA
ATOM     14  OE2 GLU     4      15.003 -18.159   0.243  1.00  0.00    -0.647 OA
ENDBRANCH  11  12
ENDBRANCH  10  11
ENDBRANCH   9  10
BRANCH   9  15
ATOM     15  N   GLU     4      17.210 -13.983   0.690  1.00  0.00    -0.229 NA
ATOM     16  C   PRO     3      18.048 -13.283  -0.065  1.00  0.00     0.272 C 
ATOM     17  O   PRO     3      17.683 -12.588  -1.014  1.00  0.00    -0.269 OA
BRANCH  16  18
ATOM     18  CA  PRO     3      19.402 -12.973   0.576  1.00  0.00     0.165 C 
ATOM     19  N   PRO     3      19.331 -12.189   1.828  1.00  0.00    -0.312 N 
ATOM     20  CD  PRO     3      20.321 -12.715   2.803  1.00  0.00     0.105 C 
ATOM     21  C   ASP     2      18.589 -11.077   1.978  1.00  0.00     0.257 C 
ATOM     22  CG  PRO     3      21.151 -13.723   1.994  1.00  0.00     0.027 C 
ATOM     23  CB  PRO     3      20.173 -14.239   0.943  1.00  0.00     0.034 C 
ATOM     24  O   ASP     2      18.082 -10.525   0.989  1.00  0.00    -0.270 OA
BRANCH  21  25
ATOM     25  CA  ASP     2      18.659 -10.289   3.305  1.00  0.00     0.195 C 
BRANCH  25  26
ATOM     26  CB  ASP     2      17.661 -10.715   4.413  1.00  0.00     0.132 C 
BRANCH  26  27
ATOM     27  CG  ASP     2      18.380 -10.828   5.770  1.00  0.00     0.188 C 
ATOM     28  OD2 ASP     2      17.860 -10.179   6.714  1.00  0.00    -0.647 OA
ATOM     29  OD1 ASP     2      19.621 -11.019   5.737  1.00  0.00    -0.647 OA
ENDBRANCH  26  27
ENDBRANCH  25  26
BRANCH  25  30
ATOM     30  N   ASP     2      18.338  -8.863   3.120  1.00  0.00    -0.228 NA
ATOM     31  C   TYR     1      18.867  -7.850   3.766  1.00  0.00     0.289 C 
ATOM     32  O   TYR     1      19.820  -7.862   4.551  1.00  0.00    -0.268 OA
BRANCH  31  33
ATOM     33  CA  TYR     1      18.140  -6.542   3.469  1.00  0.00     0.385 C 
ATOM     34  N   TYR     1      19.108  -5.619   2.853  1.00  0.00     0.626 N 
BRANCH  33  35
ATOM     35  CB  TYR     1      16.973  -6.870   2.541  1.00  0.00     0.075 C 
BRANCH  35  36
ATOM     36  CG  TYR     1      15.887  -5.783   2.534  1.00  0.00    -0.019 A 
ATOM     37  CD2 TYR     1      14.657  -5.986   3.141  1.00  0.00    -0.002 A 
ATOM     38  CE2 TYR     1      13.747  -4.945   3.239  1.00  0.00     0.027 A 
ATOM     39  CZ  TYR     1      14.083  -3.697   2.715  1.00  0.00     0.131 A 
ATOM     40  CE1 TYR     1      15.295  -3.512   2.074  1.00  0.00     0.027 A 
ATOM     41  OH  TYR     1      13.301  -2.626   2.960  1.00  0.00    -0.190 OA
ATOM     42  CD1 TYR     1      16.205  -4.554   1.976  1.00  0.00    -0.002 A 
ENDBRANCH  35  36
ENDBRANCH  33  35
ENDBRANCH  31  33
ENDBRANCH  25  30
ENDBRANCH  21  25
ENDBRANCH  16  18
ENDBRANCH   9  15
ENDBRANCH   7   9
ENDBRANCH   5   6
BRANCH   5  43
ATOM     43  CB  TYR     5      12.144 -13.563   3.192  1.00  0.00     0.060 C 
BRANCH  43  44
ATOM     44  CG  TYR     5      12.703 -13.372   4.612  1.00  0.00    -0.020 A 
ATOM     45  CD2 TYR     5      13.990 -12.887   4.805  1.00  0.00    -0.002 A 
ATOM     46  CE2 TYR     5      14.485 -12.710   6.094  1.00  0.00     0.027 A 
ATOM     47  CZ  TYR     5      13.693 -13.018   7.189  1.00  0.00     0.131 A 
ATOM     48  CE1 TYR     5      12.397 -13.487   7.004  1.00  0.00     0.027 A 
ATOM     49  OH  TYR     5      14.211 -12.983   8.436  1.00  0.00    -0.190 OA
ATOM     50  CD1 TYR     5      11.907 -13.672   5.711  1.00  0.00    -0.002 A 
ENDBRANCH  43  44
ENDBRANCH   5  43
ENDBRANCH   3   5
ENDBRANCH   1   2
BRANCH   1  51
ATOM     51  CB  ARG     6      10.635 -18.822   1.082  1.00  0.00     0.036 C 
BRANCH  51  52
ATOM     52  CG  ARG     6       9.914 -18.550  -0.240  1.00  0.00     0.029 C 
BRANCH  52  53
ATOM     53  CD  ARG     6       8.402 -18.553  -0.032  1.00  0.00     0.145 C 
BRANCH  53  54
ATOM     54  NE  ARG     6       7.862 -17.184  -0.069  1.00  0.00    -0.083 NA
ATOM     55  CZ  ARG     6       7.001 -16.708  -0.988  1.00  0.00     0.782 C 
ATOM     56  NH2 ARG     6       6.639 -15.423  -0.977  1.00  0.00     0.063 N 
ATOM     57  NH1 ARG     6       6.568 -17.491  -1.970  1.00  0.00     0.063 N 
ENDBRANCH  53  54
ENDBRANCH  52  53
ENDBRANCH  51  52
ENDBRANCH   1  51
BRANCH   1  58
ATOM     58  C   ARG     6       9.794 -18.685   3.383  1.00  0.00     0.274 C 
ATOM     59  N   ASN     7       9.641 -19.985   3.145  1.00  0.00    -0.228 NA
ATOM     60  O   ARG     6       9.581 -18.134   4.464  1.00  0.00    -0.268 OA
BRANCH  59  61
ATOM     61  CA  ASN     7       9.287 -20.968   4.190  1.00  0.00     0.196 C 
BRANCH  61  62
ATOM     62  C   ASN     7      10.100 -22.270   4.042  1.00  0.00     0.275 C 
ATOM     63  N   PHE     8       9.619 -23.359   4.659  1.00  0.00    -0.228 NA
ATOM     64  O   ASN     7      10.870 -22.338   3.104  1.00  0.00    -0.268 OA
BRANCH  63  65
ATOM     65  CA  PHE     8      10.209 -24.717   4.565  1.00  0.00     0.191 C 
BRANCH  65  66
ATOM     66  CB  PHE     8       9.929 -25.266   3.159  1.00  0.00     0.060 C 
BRANCH  66  67
ATOM     67  CG  PHE     8       9.202 -26.624   3.140  1.00  0.00    -0.020 A 
ATOM     68  CD1 PHE     8       9.206 -27.428   4.271  1.00  0.00    -0.004 A 
ATOM     69  CE1 PHE     8       8.637 -28.701   4.221  1.00  0.00    -0.000 A 
ATOM     70  CZ  PHE     8       8.056 -29.148   3.045  1.00  0.00    -0.000 A 
ATOM     71  CE2 PHE     8       8.039 -28.339   1.914  1.00  0.00    -0.000 A 
ATOM     72  CD2 PHE     8       8.608 -27.067   1.965  1.00  0.00    -0.004 A 
ENDBRANCH  66  67
ENDBRANCH  65  66
BRANCH  65  73
ATOM     73  C   PHE     8      11.709 -24.803   4.923  1.00  0.00     0.275 C 
ATOM     74  N   TRP     9      12.511 -25.335   3.999  1.00  0.00    -0.228 NA
ATOM     75  O   PHE     8      12.095 -24.629   6.082  1.00  0.00    -0.268 OA
BRANCH  74  76
ATOM     76  CA  TRP     9      13.986 -25.366   4.158  1.00  0.00     0.191 C 
BRANCH  76  77
ATOM     77  CB  TRP     9      14.511 -26.718   3.648  1.00  0.00     0.062 C 
BRANCH  77  78
ATOM     78  CG  TRP     9      13.462 -27.828   3.693  1.00  0.00     0.001 A 
ATOM     79  CD1 TRP     9      13.322 -28.731   4.658  1.00  0.00     0.095 A 
ATOM     80  NE1 TRP     9      12.524 -29.708   4.246  1.00  0.00    -0.244 NA
ATOM     81  CE2 TRP     9      12.112 -29.453   3.013  1.00  0.00     0.081 A 
ATOM     82  CD2 TRP     9      12.700 -28.263   2.613  1.00  0.00     0.015 A 
ATOM     83  CZ2 TRP     9      11.348 -30.180   2.101  1.00  0.00     0.019 A 
ATOM     84  CE3 TRP     9      12.550 -27.797   1.315  1.00  0.00     0.001 A 
ATOM     85  CZ3 TRP     9      11.799 -28.528   0.400  1.00  0.00     0.000 A 
ATOM     86  CH2 TRP     9      11.185 -29.711   0.806  1.00  0.00     0.002 A 
ENDBRANCH  77  78
ENDBRANCH  76  77
BRANCH  76  87
ATOM     87  C   TRP     9      14.727 -24.180   3.500  1.00  0.00     0.275 C 
ATOM     88  O   TRP     9      15.555 -24.369   2.614  1.00  0.00    -0.268 OA
ATOM     89  N   GLY    10      14.343 -22.963   3.880  1.00  0.00    -0.226 NA
BRANCH  89  90
ATOM     90  CA  GLY    10      14.905 -21.698   3.332  1.00  0.00     0.218 C 
BRANCH  90  91
ATOM     91  C   GLY    10      14.053 -20.973   2.277  1.00  0.00     0.277 C 
ATOM     92  N   CYS    11      13.920 -21.620   1.120  1.00  0.00    -0.228 NA
ATOM     93  O   GLY    10      13.688 -19.817   2.457  1.00  0.00    -0.268 OA
BRANCH  92  94
ATOM     94  CA  CYS    11      13.141 -21.171  -0.057  1.00  0.00     0.198 C 
BRANCH  94  95
ATOM     95  C   CYS    11      12.054 -22.226  -0.341  1.00  0.00     0.275 C 
ATOM     96  O   CYS    11      10.949 -21.854  -0.723  1.00  0.00    -0.268 OA
ATOM     97  N   GLY    12      12.330 -23.464   0.041  1.00  0.00    -0.225 NA
BRANCH  97  98
ATOM     98  CA  GLY    12      11.396 -24.586  -0.141  1.00  0.00     0.226 C 
BRANCH  98  99
ATOM     99  C   GLY    12      11.528 -25.086  -1.599  1.00  0.00     0.211 C 
ATOM    100  O1  GLY    12      12.609 -25.649  -1.906  1.00  0.00    -0.646 OA
ATOM    101  O2  GLY    12      10.552 -24.931  -2.356  1.00  0.00    -0.646 OA
ENDBRANCH  98  99
ENDBRANCH  97  98
ENDBRANCH  94  95
BRANCH  94 102
ATOM    102  CB  CYS    11      14.030 -21.151  -1.298  1.00  0.00     0.103 C 
ATOM    103  SG  CYS    11      13.546 -19.974  -2.619  1.00  0.00    -0.080 SA
ENDBRANCH  94 102
ENDBRANCH  92  94
ENDBRANCH  90  91
ENDBRANCH  89  90
ENDBRANCH  76  87
ENDBRANCH  74  76
ENDBRANCH  65  73
ENDBRANCH  63  65
ENDBRANCH  61  62
BRANCH  61 104
ATOM    104  CB  ASN     7       7.782 -21.263   4.190  1.00  0.00     0.126 C 
BRANCH 104 105
ATOM    105  CG  ASN     7       6.963 -20.445   5.207  1.00  0.00     0.276 C 
ATOM    106  ND2 ASN     7       6.605 -21.078   6.301  1.00  0.00    -0.107 N 
ATOM    107  OD1 ASN     7       6.502 -19.330   5.002  1.00  0.00    -0.269 OA
ENDBRANCH 104 105
ENDBRANCH  61 104
ENDBRANCH  59  61
ENDBRANCH   1  58
TORSDOF 42
ENDMDL
MODEL 4
REMARK VINA RESULT:      -5.7     30.035     39.871
REMARK WARNING: 32 MAX_TORS EXCEEDED!!!
REMARK  42 active torsions:
REMARK  status: ('A' for Active; 'I' for Inactive)
REMARK    1  A    between atoms: CA_2  and  CB_3 
REMARK    2  A    between atoms: CA_2  and  C_11 
REMARK    3  A    between atoms: CB_3  and  CG_4 
REMARK       I    between atoms: C_11  and  N_13 
REMARK    4  A    between atoms: N_13  and  CA_14 
REMARK    5  A    between atoms: CA_14  and  CB_15 
REMARK    6  A    between atoms: CA_14  and  C_19 
REMARK    7  A    between atoms: CB_15  and  CG_16 
REMARK       I    between atoms: C_19  and  N_21 
REMARK    8  A    between atoms: CA_22  and  C_26 
REMARK       I    between atoms: C_26  and  N_28 
REMARK    9  A    between atoms: N_28  and  CA_29 
REMARK   10  A    between atoms: CA_29  and  C_35 
REMARK   11  A    between atoms: CA_29  and  CB_30 
REMARK   12  A    between atoms: CB_30  and  CG_31 
REMARK   13  A    between atoms: CG_31  and  CD_32 
REMARK       I    between atoms: C_35  and  N_37 
REMARK   14  A    between atoms: N_37  and  CA_38 
REMARK   15  A    between atoms: CA_38  and  CB_39 
REMARK   16  A    between atoms: CA_38  and  C_47 
REMARK   17  A    between atoms: CB_39  and  CG_40 
REMARK       I    between atoms: C_47  and  N_49 
REMARK   18  A    between atoms: N_49  and  CA_50 
REMARK   19  A    between atoms: CA_50  and  CB_51 
REMARK   20  A    between atoms: CA_50  and  C_58 
REMARK   21  A    between atoms: CB_51  and  CG_52 
REMARK   22  A    between atoms: CG_52  and  CD_53 
REMARK   23  A    between atoms: CD_53  and  NE_54 
REMARK       I    between atoms: C_58  and  N_60 
REMARK   24  A    between atoms: N_60  and  CA_61 
REMARK   25  A    between atoms: CA_61  and  C_66 
REMARK   26  A    between atoms: CA_61  and  CB_62 
REMARK   27  A    between atoms: CB_62  and  CG_63 
REMARK       I    between atoms: C_66  and  N_68 
REMARK   28  A    between atoms: N_68  and  CA_69 
REMARK   29  A    between atoms: CA_69  and  CB_70 
REMARK   30  A    between atoms: CA_69  and  C_77 
REMARK   31  A    between atoms: CB_70  and  CG_71 
REMARK       I    between atoms: C_77  and  N_79 
REMARK   32  A    between atoms: N_79  and  CA_80 
REMARK   33  A    between atoms: CA_80  and  CB_81 
REMARK   34  A    between atoms: CA_80  and  C_91 
REMARK   35  A    between atoms: CB_81  and  CG_82 
REMARK       I    between atoms: C_91  and  N_93 
REMARK   36  A    between atoms: N_93  and  CA_94 
REMARK   37  A    between atoms: CA_94  and  C_95 
REMARK       I    between atoms: C_95  and  N_97 
REMARK   38  A    between atoms: N_97  and  CA_98 
REMARK   39  A    between atoms: CA_98  and  C_101 
REMARK   40  A    between atoms: CA_98  and  CB_99 
REMARK       I    between atoms: C_101  and  N_103 
REMARK   41  A    between atoms: N_103  and  CA_104 
REMARK   42  A    between atoms: CA_104  and  C_105 
ROOT
ATOM      1  CA  ARG     6      -0.884 -29.330   4.682  1.00  0.00     0.186 C 
ENDROOT
BRANCH   1   2
ATOM      2  N   ARG     6      -2.018 -28.535   4.155  1.00  0.00    -0.229 NA
ATOM      3  C   TYR     5      -3.148 -29.102   3.712  1.00  0.00     0.275 C 
ATOM      4  O   TYR     5      -3.329 -30.319   3.740  1.00  0.00    -0.268 OA
BRANCH   3   5
ATOM      5  CA  TYR     5      -4.275 -28.159   3.261  1.00  0.00     0.191 C 
BRANCH   5   6
ATOM      6  N   TYR     5      -5.623 -28.783   3.304  1.00  0.00    -0.228 NA
ATOM      7  C   GLU     4      -6.385 -28.958   2.212  1.00  0.00     0.274 C 
ATOM      8  O   GLU     4      -5.974 -28.747   1.078  1.00  0.00    -0.268 OA
BRANCH   7   9
ATOM      9  CA  GLU     4      -7.693 -29.749   2.419  1.00  0.00     0.187 C 
BRANCH   9  10
ATOM     10  CB  GLU     4      -7.660 -31.040   1.584  1.00  0.00     0.045 C 
BRANCH  10  11
ATOM     11  CG  GLU     4      -7.101 -32.295   2.289  1.00  0.00     0.100 C 
BRANCH  11  12
ATOM     12  CD  GLU     4      -8.136 -33.078   3.095  1.00  0.00     0.185 C 
ATOM     13  OE1 GLU     4      -9.290 -33.186   2.604  1.00  0.00    -0.647 OA
ATOM     14  OE2 GLU     4      -7.952 -33.147   4.327  1.00  0.00    -0.647 OA
ENDBRANCH  11  12
ENDBRANCH  10  11
ENDBRANCH   9  10
BRANCH   9  15
ATOM     15  N   GLU     4      -8.901 -28.983   2.055  1.00  0.00    -0.229 NA
ATOM     16  C   PRO     3      -9.593 -28.137   2.809  1.00  0.00     0.272 C 
ATOM     17  O   PRO     3      -9.125 -27.577   3.801  1.00  0.00    -0.269 OA
BRANCH  16  18
ATOM     18  CA  PRO     3     -10.808 -27.502   2.130  1.00  0.00     0.165 C 
ATOM     19  N   PRO     3     -10.525 -26.846   0.835  1.00  0.00    -0.312 N 
ATOM     20  CD  PRO     3     -11.624 -27.134  -0.121  1.00  0.00     0.105 C 
ATOM     21  C   ASP     2      -9.502 -25.996   0.631  1.00  0.00     0.257 C 
ATOM     22  CG  PRO     3     -12.700 -27.821   0.733  1.00  0.00     0.027 C 
ATOM     23  CB  PRO     3     -11.902 -28.523   1.828  1.00  0.00     0.034 C 
ATOM     24  O   ASP     2      -8.859 -25.548   1.593  1.00  0.00    -0.270 OA
BRANCH  21  25
ATOM     25  CA  ASP     2      -9.352 -25.302  -0.741  1.00  0.00     0.195 C 
BRANCH  25  26
ATOM     26  CB  ASP     2      -8.198 -25.805  -1.646  1.00  0.00     0.132 C 
BRANCH  26  27
ATOM     27  CG  ASP     2      -8.451 -27.261  -2.081  1.00  0.00     0.188 C 
ATOM     28  OD2 ASP     2      -7.494 -28.056  -1.894  1.00  0.00    -0.647 OA
ATOM     29  OD1 ASP     2      -9.244 -27.433  -3.040  1.00  0.00    -0.647 OA
ENDBRANCH  26  27
ENDBRANCH  25  26
BRANCH  25  30
ATOM     30  N   ASP     2      -9.048 -23.867  -0.606  1.00  0.00    -0.228 NA
ATOM     31  C   TYR     1      -9.381 -22.912  -1.443  1.00  0.00     0.289 C 
ATOM     32  O   TYR     1     -10.122 -22.988  -2.429  1.00  0.00    -0.268 OA
BRANCH  31  33
ATOM     33  CA  TYR     1      -8.712 -21.586  -1.092  1.00  0.00     0.385 C 
ATOM     34  N   TYR     1      -8.708 -20.749  -2.304  1.00  0.00     0.626 N 
BRANCH  33  35
ATOM     35  CB  TYR     1      -9.512 -20.960   0.048  1.00  0.00     0.075 C 
BRANCH  35  36
ATOM     36  CG  TYR     1      -8.702 -20.826   1.346  1.00  0.00    -0.019 A 
ATOM     37  CD2 TYR     1      -9.300 -20.434   2.534  1.00  0.00    -0.002 A 
ATOM     38  CE2 TYR     1      -8.578 -20.451   3.718  1.00  0.00     0.027 A 
ATOM     39  CZ  TYR     1      -7.245 -20.859   3.695  1.00  0.00     0.131 A 
ATOM     40  CE1 TYR     1      -6.642 -21.209   2.500  1.00  0.00     0.027 A 
ATOM     41  OH  TYR     1      -6.578 -21.064   4.849  1.00  0.00    -0.190 OA
ATOM     42  CD1 TYR     1      -7.365 -21.192   1.316  1.00  0.00    -0.002 A 
ENDBRANCH  35  36
ENDBRANCH  33  35
ENDBRANCH  31  33
ENDBRANCH  25  30
ENDBRANCH  21  25
ENDBRANCH  16  18
ENDBRANCH   9  15
ENDBRANCH   7   9
ENDBRANCH   5   6
BRANCH   5  43
ATOM     43  CB  TYR     5      -4.269 -26.861   4.087  1.00  0.00     0.060 C 
BRANCH  43  44
ATOM     44  CG  TYR     5      -4.076 -25.612   3.210  1.00  0.00    -0.020 A 
ATOM     45  CD2 TYR     5      -3.495 -24.464   3.733  1.00  0.00    -0.002 A 
ATOM     46  CE2 TYR     5      -3.318 -23.342   2.929  1.00  0.00     0.027 A 
ATOM     47  CZ  TYR     5      -3.722 -23.367   1.604  1.00  0.00     0.131 A 
ATOM     48  CE1 TYR     5      -4.289 -24.519   1.068  1.00  0.00     0.027 A 
ATOM     49  OH  TYR     5      -3.683 -22.242   0.858  1.00  0.00    -0.190 OA
ATOM     50  CD1 TYR     5      -4.473 -25.640   1.878  1.00  0.00    -0.002 A 
ENDBRANCH  43  44
ENDBRANCH   5  43
ENDBRANCH   3   5
ENDBRANCH   1   2
BRANCH   1  51
ATOM     51  CB  ARG     6      -1.308 -30.332   5.751  1.00  0.00     0.036 C 
BRANCH  51  52
ATOM     52  CG  ARG     6      -0.982 -29.883   7.178  1.00  0.00     0.029 C 
BRANCH  52  53
ATOM     53  CD  ARG     6      -2.205 -30.039   8.076  1.00  0.00     0.145 C 
BRANCH  53  54
ATOM     54  NE  ARG     6      -2.974 -28.785   8.144  1.00  0.00    -0.083 NA
ATOM     55  CZ  ARG     6      -4.172 -28.571   7.568  1.00  0.00     0.782 C 
ATOM     56  NH2 ARG     6      -4.745 -27.367   7.621  1.00  0.00     0.063 N 
ATOM     57  NH1 ARG     6      -4.760 -29.533   6.864  1.00  0.00     0.063 N 
ENDBRANCH  53  54
ENDBRANCH  52  53
ENDBRANCH  51  52
ENDBRANCH   1  51
BRANCH   1  58
ATOM     58  C   ARG     6      -0.172 -30.133   3.586  1.00  0.00     0.274 C 
ATOM     59  N   ASN     7       0.340 -31.300   3.966  1.00  0.00    -0.228 NA
ATOM     60  O   ARG     6      -0.107 -29.669   2.446  1.00  0.00    -0.268 OA
BRANCH  59  61
ATOM     61  CA  ASN     7       0.975 -32.254   3.034  1.00  0.00     0.196 C 
BRANCH  61  62
ATOM     62  C   ASN     7       0.525 -33.702   3.310  1.00  0.00     0.275 C 
ATOM     63  N   PHE     8       1.479 -34.645   3.312  1.00  0.00    -0.228 NA
ATOM     64  O   ASN     7      -0.542 -33.853   3.874  1.00  0.00    -0.268 OA
BRANCH  63  65
ATOM     65  CA  PHE     8       1.258 -36.074   3.640  1.00  0.00     0.191 C 
BRANCH  65  66
ATOM     66  CB  PHE     8       2.459 -36.878   3.121  1.00  0.00     0.060 C 
BRANCH  66  67
ATOM     67  CG  PHE     8       2.175 -37.693   1.845  1.00  0.00    -0.020 A 
ATOM     68  CD1 PHE     8       0.895 -38.167   1.597  1.00  0.00    -0.004 A 
ATOM     69  CE1 PHE     8       0.661 -38.990   0.496  1.00  0.00    -0.000 A 
ATOM     70  CZ  PHE     8       1.706 -39.317  -0.353  1.00  0.00    -0.000 A 
ATOM     71  CE2 PHE     8       2.988 -38.831  -0.114  1.00  0.00    -0.000 A 
ATOM     72  CD2 PHE     8       3.221 -38.008   0.988  1.00  0.00    -0.004 A 
ENDBRANCH  66  67
ENDBRANCH  65  66
BRANCH  65  73
ATOM     73  C   PHE     8       0.978 -36.366   5.132  1.00  0.00     0.275 C 
ATOM     74  N   TRP     9      -0.012 -37.220   5.394  1.00  0.00    -0.228 NA
ATOM     75  O   PHE     8       1.467 -35.660   6.018  1.00  0.00    -0.268 OA
BRANCH  74  76
ATOM     76  CA  TRP     9      -0.308 -37.684   6.772  1.00  0.00     0.191 C 
BRANCH  76  77
ATOM     77  CB  TRP     9      -1.771 -37.348   7.105  1.00  0.00     0.062 C 
BRANCH  77  78
ATOM     78  CG  TRP     9      -2.050 -35.846   7.143  1.00  0.00     0.001 A 
ATOM     79  CD1 TRP     9      -1.866 -35.043   8.187  1.00  0.00     0.095 A 
ATOM     80  NE1 TRP     9      -2.477 -33.885   7.975  1.00  0.00    -0.244 NA
ATOM     81  CE2 TRP     9      -3.055 -33.900   6.783  1.00  0.00     0.081 A 
ATOM     82  CD2 TRP     9      -2.818 -35.144   6.219  1.00  0.00     0.015 A 
ATOM     83  CZ2 TRP     9      -3.882 -32.993   6.120  1.00  0.00     0.019 A 
ATOM     84  CE3 TRP     9      -3.406 -35.501   5.015  1.00  0.00     0.001 A 
ATOM     85  CZ3 TRP     9      -4.241 -34.603   4.359  1.00  0.00     0.000 A 
ATOM     86  CH2 TRP     9      -4.460 -33.342   4.909  1.00  0.00     0.002 A 
ENDBRANCH  77  78
ENDBRANCH  76  77
BRANCH  76  87
ATOM     87  C   TRP     9       0.007 -39.175   7.028  1.00  0.00     0.275 C 
ATOM     88  O   TRP     9       1.069 -39.667   6.661  1.00  0.00    -0.268 OA
ATOM     89  N   GLY    10      -0.888 -39.850   7.749  1.00  0.00    -0.226 NA
BRANCH  89  90
ATOM     90  CA  GLY    10      -0.745 -41.280   8.137  1.00  0.00     0.218 C 
BRANCH  90  91
ATOM     91  C   GLY    10      -1.802 -42.247   7.580  1.00  0.00     0.277 C 
ATOM     92  N   CYS    11      -2.234 -41.963   6.352  1.00  0.00    -0.228 NA
ATOM     93  O   GLY    10      -2.311 -43.097   8.301  1.00  0.00    -0.268 OA
BRANCH  92  94
ATOM     94  CA  CYS    11      -3.225 -42.731   5.566  1.00  0.00     0.198 C 
BRANCH  94  95
ATOM     95  C   CYS    11      -2.803 -42.681   4.084  1.00  0.00     0.275 C 
ATOM     96  O   CYS    11      -3.632 -42.942   3.219  1.00  0.00    -0.268 OA
ATOM     97  N   GLY    12      -1.505 -42.548   3.853  1.00  0.00    -0.225 NA
BRANCH  97  98
ATOM     98  CA  GLY    12      -0.933 -42.498   2.498  1.00  0.00     0.226 C 
BRANCH  98  99
ATOM     99  C   GLY    12       0.519 -41.978   2.612  1.00  0.00     0.211 C 
ATOM    100  O1  GLY    12       0.749 -41.141   3.521  1.00  0.00    -0.646 OA
ATOM    101  O2  GLY    12       1.365 -42.444   1.827  1.00  0.00    -0.646 OA
ENDBRANCH  98  99
ENDBRANCH  97  98
ENDBRANCH  94  95
BRANCH  94 102
ATOM    102  CB  CYS    11      -4.589 -42.049   5.629  1.00  0.00     0.103 C 
ATOM    103  SG  CYS    11      -6.018 -43.135   6.008  1.00  0.00    -0.080 SA
ENDBRANCH  94 102
ENDBRANCH  92  94
ENDBRANCH  90  91
ENDBRANCH  89  90
ENDBRANCH  76  87
ENDBRANCH  74  76
ENDBRANCH  65  73
ENDBRANCH  63  65
ENDBRANCH  61  62
BRANCH  61 104
ATOM    104  CB  ASN     7       2.504 -32.141   3.076  1.00  0.00     0.126 C 
BRANCH 104 105
ATOM    105  CG  ASN     7       3.113 -31.196   2.024  1.00  0.00     0.276 C 
ATOM    106  ND2 ASN     7       3.363 -29.970   2.425  1.00  0.00    -0.107 N 
ATOM    107  OD1 ASN     7       3.230 -31.453   0.833  1.00  0.00    -0.269 OA
ENDBRANCH 104 105
ENDBRANCH  61 104
ENDBRANCH  59  61
ENDBRANCH   1  58
TORSDOF 42
ENDMDL
MODEL 5
REMARK VINA RESULT:      -5.7     26.576     34.370
REMARK WARNING: 32 MAX_TORS EXCEEDED!!!
REMARK  42 active torsions:
REMARK  status: ('A' for Active; 'I' for Inactive)
REMARK    1  A    between atoms: CA_2  and  CB_3 
REMARK    2  A    between atoms: CA_2  and  C_11 
REMARK    3  A    between atoms: CB_3  and  CG_4 
REMARK       I    between atoms: C_11  and  N_13 
REMARK    4  A    between atoms: N_13  and  CA_14 
REMARK    5  A    between atoms: CA_14  and  CB_15 
REMARK    6  A    between atoms: CA_14  and  C_19 
REMARK    7  A    between atoms: CB_15  and  CG_16 
REMARK       I    between atoms: C_19  and  N_21 
REMARK    8  A    between atoms: CA_22  and  C_26 
REMARK       I    between atoms: C_26  and  N_28 
REMARK    9  A    between atoms: N_28  and  CA_29 
REMARK   10  A    between atoms: CA_29  and  C_35 
REMARK   11  A    between atoms: CA_29  and  CB_30 
REMARK   12  A    between atoms: CB_30  and  CG_31 
REMARK   13  A    between atoms: CG_31  and  CD_32 
REMARK       I    between atoms: C_35  and  N_37 
REMARK   14  A    between atoms: N_37  and  CA_38 
REMARK   15  A    between atoms: CA_38  and  CB_39 
REMARK   16  A    between atoms: CA_38  and  C_47 
REMARK   17  A    between atoms: CB_39  and  CG_40 
REMARK       I    between atoms: C_47  and  N_49 
REMARK   18  A    between atoms: N_49  and  CA_50 
REMARK   19  A    between atoms: CA_50  and  CB_51 
REMARK   20  A    between atoms: CA_50  and  C_58 
REMARK   21  A    between atoms: CB_51  and  CG_52 
REMARK   22  A    between atoms: CG_52  and  CD_53 
REMARK   23  A    between atoms: CD_53  and  NE_54 
REMARK       I    between atoms: C_58  and  N_60 
REMARK   24  A    between atoms: N_60  and  CA_61 
REMARK   25  A    between atoms: CA_61  and  C_66 
REMARK   26  A    between atoms: CA_61  and  CB_62 
REMARK   27  A    between atoms: CB_62  and  CG_63 
REMARK       I    between atoms: C_66  and  N_68 
REMARK   28  A    between atoms: N_68  and  CA_69 
REMARK   29  A    between atoms: CA_69  and  CB_70 
REMARK   30  A    between atoms: CA_69  and  C_77 
REMARK   31  A    between atoms: CB_70  and  CG_71 
REMARK       I    between atoms: C_77  and  N_79 
REMARK   32  A    between atoms: N_79  and  CA_80 
REMARK   33  A    between atoms: CA_80  and  CB_81 
REMARK   34  A    between atoms: CA_80  and  C_91 
REMARK   35  A    between atoms: CB_81  and  CG_82 
REMARK       I    between atoms: C_91  and  N_93 
REMARK   36  A    between atoms: N_93  and  CA_94 
REMARK   37  A    between atoms: CA_94  and  C_95 
REMARK       I    between atoms: C_95  and  N_97 
REMARK   38  A    between atoms: N_97  and  CA_98 
REMARK   39  A    between atoms: CA_98  and  C_101 
REMARK   40  A    between atoms: CA_98  and  CB_99 
REMARK       I    between atoms: C_101  and  N_103 
REMARK   41  A    between atoms: N_103  and  CA_104 
REMARK   42  A    between atoms: CA_104  and  C_105 
ROOT
ATOM      1  CA  ARG     6       9.585 -24.736   4.396  1.00  0.00     0.186 C 
ENDROOT
BRANCH   1   2
ATOM      2  N   ARG     6      10.667 -24.347   3.462  1.00  0.00    -0.229 NA
ATOM      3  C   TYR     5      10.730 -24.804   2.205  1.00  0.00     0.275 C 
ATOM      4  O   TYR     5       9.876 -25.555   1.733  1.00  0.00    -0.268 OA
BRANCH   3   5
ATOM      5  CA  TYR     5      11.864 -24.263   1.319  1.00  0.00     0.191 C 
BRANCH   5   6
ATOM      6  N   TYR     5      11.736 -22.815   1.010  1.00  0.00    -0.228 NA
ATOM      7  C   GLU     4      12.070 -22.286  -0.179  1.00  0.00     0.274 C 
ATOM      8  O   GLU     4      12.373 -22.973  -1.146  1.00  0.00    -0.268 OA
BRANCH   7   9
ATOM      9  CA  GLU     4      11.739 -20.792  -0.371  1.00  0.00     0.187 C 
BRANCH   9  10
ATOM     10  CB  GLU     4      10.556 -20.640  -1.341  1.00  0.00     0.045 C 
BRANCH  10  11
ATOM     11  CG  GLU     4       9.893 -19.246  -1.396  1.00  0.00     0.100 C 
BRANCH  11  12
ATOM     12  CD  GLU     4       9.232 -18.811  -0.089  1.00  0.00     0.185 C 
ATOM     13  OE1 GLU     4       9.556 -17.687   0.377  1.00  0.00    -0.647 OA
ATOM     14  OE2 GLU     4       8.813 -19.720   0.657  1.00  0.00    -0.647 OA
ENDBRANCH  11  12
ENDBRANCH  10  11
ENDBRANCH   9  10
BRANCH   9  15
ATOM     15  N   GLU     4      12.876 -20.006  -0.889  1.00  0.00    -0.229 NA
ATOM     16  C   PRO     3      14.119 -19.959  -0.425  1.00  0.00     0.272 C 
ATOM     17  O   PRO     3      14.612 -20.842   0.278  1.00  0.00    -0.269 OA
BRANCH  16  18
ATOM     18  CA  PRO     3      15.068 -19.036  -1.192  1.00  0.00     0.165 C 
ATOM     19  N   PRO     3      16.085 -18.359  -0.359  1.00  0.00    -0.312 N 
ATOM     20  CD  PRO     3      17.385 -18.339  -1.076  1.00  0.00     0.105 C 
ATOM     21  C   ASP     2      15.810 -17.727   0.796  1.00  0.00     0.257 C 
ATOM     22  CG  PRO     3      17.049 -18.849  -2.486  1.00  0.00     0.027 C 
ATOM     23  CB  PRO     3      15.863 -19.782  -2.261  1.00  0.00     0.034 C 
ATOM     24  O   ASP     2      14.635 -17.495   1.119  1.00  0.00    -0.270 OA
BRANCH  21  25
ATOM     25  CA  ASP     2      16.938 -16.978   1.541  1.00  0.00     0.195 C 
BRANCH  25  26
ATOM     26  CB  ASP     2      17.986 -17.859   2.269  1.00  0.00     0.132 C 
BRANCH  26  27
ATOM     27  CG  ASP     2      19.412 -17.377   1.944  1.00  0.00     0.188 C 
ATOM     28  OD2 ASP     2      20.216 -17.375   2.911  1.00  0.00    -0.647 OA
ATOM     29  OD1 ASP     2      19.526 -16.535   1.020  1.00  0.00    -0.647 OA
ENDBRANCH  26  27
ENDBRANCH  25  26
BRANCH  25  30
ATOM     30  N   ASP     2      16.418 -16.135   2.631  1.00  0.00    -0.228 NA
ATOM     31  C   TYR     1      16.811 -14.921   2.940  1.00  0.00     0.289 C 
ATOM     32  O   TYR     1      17.585 -14.190   2.315  1.00  0.00    -0.268 OA
BRANCH  31  33
ATOM     33  CA  TYR     1      16.206 -14.443   4.257  1.00  0.00     0.385 C 
ATOM     34  N   TYR     1      16.229 -15.573   5.200  1.00  0.00     0.626 N 
BRANCH  33  35
ATOM     35  CB  TYR     1      17.043 -13.261   4.740  1.00  0.00     0.075 C 
BRANCH  35  36
ATOM     36  CG  TYR     1      16.190 -12.062   5.182  1.00  0.00    -0.019 A 
ATOM     37  CD2 TYR     1      14.830 -12.190   5.419  1.00  0.00    -0.002 A 
ATOM     38  CE2 TYR     1      14.111 -11.128   5.947  1.00  0.00     0.027 A 
ATOM     39  CZ  TYR     1      14.771  -9.933   6.227  1.00  0.00     0.131 A 
ATOM     40  CE1 TYR     1      16.120  -9.798   5.950  1.00  0.00     0.027 A 
ATOM     41  OH  TYR     1      14.142  -8.955   6.910  1.00  0.00    -0.190 OA
ATOM     42  CD1 TYR     1      16.839 -10.860   5.422  1.00  0.00    -0.002 A 
ENDBRANCH  35  36
ENDBRANCH  33  35
ENDBRANCH  31  33
ENDBRANCH  25  30
ENDBRANCH  21  25
ENDBRANCH  16  18
ENDBRANCH   9  15
ENDBRANCH   7   9
ENDBRANCH   5   6
BRANCH   5  43
ATOM     43  CB  TYR     5      13.238 -24.548   1.949  1.00  0.00     0.060 C 
BRANCH  43  44
ATOM     44  CG  TYR     5      13.925 -25.773   1.321  1.00  0.00    -0.020 A 
ATOM     45  CD2 TYR     5      14.878 -26.491   2.032  1.00  0.00    -0.002 A 
ATOM     46  CE2 TYR     5      15.489 -27.602   1.459  1.00  0.00     0.027 A 
ATOM     47  CZ  TYR     5      15.146 -27.995   0.175  1.00  0.00     0.131 A 
ATOM     48  CE1 TYR     5      14.180 -27.293  -0.537  1.00  0.00     0.027 A 
ATOM     49  OH  TYR     5      15.831 -28.984  -0.440  1.00  0.00    -0.190 OA
ATOM     50  CD1 TYR     5      13.575 -26.174   0.037  1.00  0.00    -0.002 A 
ENDBRANCH  43  44
ENDBRANCH   5  43
ENDBRANCH   3   5
ENDBRANCH   1   2
BRANCH   1  51
ATOM     51  CB  ARG     6      10.107 -25.180   5.759  1.00  0.00     0.036 C 
BRANCH  51  52
ATOM     52  CG  ARG     6      11.614 -25.441   5.784  1.00  0.00     0.029 C 
BRANCH  52  53
ATOM     53  CD  ARG     6      11.893 -26.942   5.779  1.00  0.00     0.145 C 
BRANCH  53  54
ATOM     54  NE  ARG     6      12.258 -27.407   4.431  1.00  0.00    -0.083 NA
ATOM     55  CZ  ARG     6      11.451 -28.087   3.594  1.00  0.00     0.782 C 
ATOM     56  NH2 ARG     6      11.910 -28.535   2.424  1.00  0.00     0.063 N 
ATOM     57  NH1 ARG     6      10.212 -28.396   3.961  1.00  0.00     0.063 N 
ENDBRANCH  53  54
ENDBRANCH  52  53
ENDBRANCH  51  52
ENDBRANCH   1  51
BRANCH   1  58
ATOM     58  C   ARG     6       8.595 -23.594   4.655  1.00  0.00     0.274 C 
ATOM     59  N   ASN     7       8.391 -23.286   5.933  1.00  0.00    -0.228 NA
ATOM     60  O   ARG     6       8.052 -23.039   3.698  1.00  0.00    -0.268 OA
BRANCH  59  61
ATOM     61  CA  ASN     7       7.550 -22.154   6.374  1.00  0.00     0.196 C 
BRANCH  61  62
ATOM     62  C   ASN     7       8.291 -20.810   6.235  1.00  0.00     0.275 C 
ATOM     63  N   PHE     8       7.607 -19.793   5.690  1.00  0.00    -0.228 NA
ATOM     64  O   ASN     7       9.261 -20.635   6.947  1.00  0.00    -0.268 OA
BRANCH  63  65
ATOM     65  CA  PHE     8       8.115 -18.406   5.551  1.00  0.00     0.191 C 
BRANCH  65  66
ATOM     66  CB  PHE     8       8.079 -17.740   6.933  1.00  0.00     0.060 C 
BRANCH  66  67
ATOM     67  CG  PHE     8       6.894 -16.779   7.145  1.00  0.00    -0.020 A 
ATOM     68  CD1 PHE     8       7.082 -15.590   7.838  1.00  0.00    -0.004 A 
ATOM     69  CE1 PHE     8       5.990 -14.770   8.118  1.00  0.00    -0.000 A 
ATOM     70  CZ  PHE     8       4.725 -15.139   7.690  1.00  0.00    -0.000 A 
ATOM     71  CE2 PHE     8       4.536 -16.323   6.984  1.00  0.00    -0.000 A 
ATOM     72  CD2 PHE     8       5.629 -17.143   6.704  1.00  0.00    -0.004 A 
ENDBRANCH  66  67
ENDBRANCH  65  66
BRANCH  65  73
ATOM     73  C   PHE     8       9.509 -18.285   4.895  1.00  0.00     0.275 C 
ATOM     74  N   TRP     9      10.495 -17.836   5.674  1.00  0.00    -0.228 NA
ATOM     75  O   PHE     8       9.642 -18.355   3.671  1.00  0.00    -0.268 OA
BRANCH  74  76
ATOM     76  CA  TRP     9      11.904 -17.786   5.212  1.00  0.00     0.191 C 
BRANCH  76  77
ATOM     77  CB  TRP     9      12.659 -16.730   6.035  1.00  0.00     0.062 C 
BRANCH  77  78
ATOM     78  CG  TRP     9      12.318 -15.296   5.632  1.00  0.00     0.001 A 
ATOM     79  CD1 TRP     9      11.598 -14.435   6.345  1.00  0.00     0.095 A 
ATOM     80  NE1 TRP     9      11.250 -13.404   5.585  1.00  0.00    -0.244 NA
ATOM     81  CE2 TRP     9      11.751 -13.562   4.369  1.00  0.00     0.081 A 
ATOM     82  CD2 TRP     9      12.432 -14.769   4.350  1.00  0.00     0.015 A 
ATOM     83  CZ2 TRP     9      11.615 -12.832   3.188  1.00  0.00     0.019 A 
ATOM     84  CE3 TRP     9      12.965 -15.265   3.170  1.00  0.00     0.001 A 
ATOM     85  CZ3 TRP     9      12.819 -14.545   1.988  1.00  0.00     0.000 A 
ATOM     86  CH2 TRP     9      12.158 -13.319   2.008  1.00  0.00     0.002 A 
ENDBRANCH  77  78
ENDBRANCH  76  77
BRANCH  76  87
ATOM     87  C   TRP     9      12.632 -19.150   5.228  1.00  0.00     0.275 C 
ATOM     88  O   TRP     9      12.927 -19.693   6.288  1.00  0.00    -0.268 OA
ATOM     89  N   GLY    10      12.822 -19.730   4.044  1.00  0.00    -0.226 NA
BRANCH  89  90
ATOM     90  CA  GLY    10      13.463 -21.060   3.855  1.00  0.00     0.218 C 
BRANCH  90  91
ATOM     91  C   GLY    10      14.984 -21.058   3.632  1.00  0.00     0.277 C 
ATOM     92  N   CYS    11      15.552 -22.263   3.613  1.00  0.00    -0.228 NA
ATOM     93  O   GLY    10      15.616 -20.008   3.651  1.00  0.00    -0.268 OA
BRANCH  92  94
ATOM     94  CA  CYS    11      16.986 -22.559   3.396  1.00  0.00     0.198 C 
BRANCH  94  95
ATOM     95  C   CYS    11      17.251 -22.553   1.878  1.00  0.00     0.275 C 
ATOM     96  O   CYS    11      17.839 -21.599   1.379  1.00  0.00    -0.268 OA
ATOM     97  N   GLY    12      16.643 -23.499   1.177  1.00  0.00    -0.225 NA
BRANCH  97  98
ATOM     98  CA  GLY    12      16.776 -23.626  -0.283  1.00  0.00     0.226 C 
BRANCH  98  99
ATOM     99  C   GLY    12      17.350 -25.029  -0.590  1.00  0.00     0.211 C 
ATOM    100  O1  GLY    12      18.084 -25.543   0.292  1.00  0.00    -0.646 OA
ATOM    101  O2  GLY    12      17.022 -25.567  -1.663  1.00  0.00    -0.646 OA
ENDBRANCH  98  99
ENDBRANCH  97  98
ENDBRANCH  94  95
BRANCH  94 102
ATOM    102  CB  CYS    11      17.307 -23.976   3.865  1.00  0.00     0.103 C 
ATOM    103  SG  CYS    11      18.913 -24.200   4.722  1.00  0.00    -0.080 SA
ENDBRANCH  94 102
ENDBRANCH  92  94
ENDBRANCH  90  91
ENDBRANCH  89  90
ENDBRANCH  76  87
ENDBRANCH  74  76
ENDBRANCH  65  73
ENDBRANCH  63  65
ENDBRANCH  61  62
BRANCH  61 104
ATOM    104  CB  ASN     7       7.054 -22.356   7.812  1.00  0.00     0.126 C 
BRANCH 104 105
ATOM    105  CG  ASN     7       5.698 -21.698   8.126  1.00  0.00     0.276 C 
ATOM    106  ND2 ASN     7       5.747 -20.472   8.596  1.00  0.00    -0.107 N 
ATOM    107  OD1 ASN     7       4.618 -22.275   8.119  1.00  0.00    -0.269 OA
ENDBRANCH 104 105
ENDBRANCH  61 104
ENDBRANCH  59  61
ENDBRANCH   1  58
TORSDOF 42
ENDMDL
MODEL 6
REMARK VINA RESULT:      -5.7      8.605     17.403
REMARK WARNING: 32 MAX_TORS EXCEEDED!!!
REMARK  42 active torsions:
REMARK  status: ('A' for Active; 'I' for Inactive)
REMARK    1  A    between atoms: CA_2  and  CB_3 
REMARK    2  A    between atoms: CA_2  and  C_11 
REMARK    3  A    between atoms: CB_3  and  CG_4 
REMARK       I    between atoms: C_11  and  N_13 
REMARK    4  A    between atoms: N_13  and  CA_14 
REMARK    5  A    between atoms: CA_14  and  CB_15 
REMARK    6  A    between atoms: CA_14  and  C_19 
REMARK    7  A    between atoms: CB_15  and  CG_16 
REMARK       I    between atoms: C_19  and  N_21 
REMARK    8  A    between atoms: CA_22  and  C_26 
REMARK       I    between atoms: C_26  and  N_28 
REMARK    9  A    between atoms: N_28  and  CA_29 
REMARK   10  A    between atoms: CA_29  and  C_35 
REMARK   11  A    between atoms: CA_29  and  CB_30 
REMARK   12  A    between atoms: CB_30  and  CG_31 
REMARK   13  A    between atoms: CG_31  and  CD_32 
REMARK       I    between atoms: C_35  and  N_37 
REMARK   14  A    between atoms: N_37  and  CA_38 
REMARK   15  A    between atoms: CA_38  and  CB_39 
REMARK   16  A    between atoms: CA_38  and  C_47 
REMARK   17  A    between atoms: CB_39  and  CG_40 
REMARK       I    between atoms: C_47  and  N_49 
REMARK   18  A    between atoms: N_49  and  CA_50 
REMARK   19  A    between atoms: CA_50  and  CB_51 
REMARK   20  A    between atoms: CA_50  and  C_58 
REMARK   21  A    between atoms: CB_51  and  CG_52 
REMARK   22  A    between atoms: CG_52  and  CD_53 
REMARK   23  A    between atoms: CD_53  and  NE_54 
REMARK       I    between atoms: C_58  and  N_60 
REMARK   24  A    between atoms: N_60  and  CA_61 
REMARK   25  A    between atoms: CA_61  and  C_66 
REMARK   26  A    between atoms: CA_61  and  CB_62 
REMARK   27  A    between atoms: CB_62  and  CG_63 
REMARK       I    between atoms: C_66  and  N_68 
REMARK   28  A    between atoms: N_68  and  CA_69 
REMARK   29  A    between atoms: CA_69  and  CB_70 
REMARK   30  A    between atoms: CA_69  and  C_77 
REMARK   31  A    between atoms: CB_70  and  CG_71 
REMARK       I    between atoms: C_77  and  N_79 
REMARK   32  A    between atoms: N_79  and  CA_80 
REMARK   33  A    between atoms: CA_80  and  CB_81 
REMARK   34  A    between atoms: CA_80  and  C_91 
REMARK   35  A    between atoms: CB_81  and  CG_82 
REMARK       I    between atoms: C_91  and  N_93 
REMARK   36  A    between atoms: N_93  and  CA_94 
REMARK   37  A    between atoms: CA_94  and  C_95 
REMARK       I    between atoms: C_95  and  N_97 
REMARK   38  A    between atoms: N_97  and  CA_98 
REMARK   39  A    between atoms: CA_98  and  C_101 
REMARK   40  A    between atoms: CA_98  and  CB_99 
REMARK       I    between atoms: C_101  and  N_103 
REMARK   41  A    between atoms: N_103  and  CA_104 
REMARK   42  A    between atoms: CA_104  and  C_105 
ROOT
ATOM      1  CA  ARG     6     -11.158  -8.476   6.429  1.00  0.00     0.186 C 
ENDROOT
BRANCH   1   2
ATOM      2  N   ARG     6     -10.602  -7.380   5.602  1.00  0.00    -0.229 NA
ATOM      3  C   TYR     5     -10.943  -6.098   5.785  1.00  0.00     0.275 C 
ATOM      4  O   TYR     5     -11.720  -5.744   6.673  1.00  0.00    -0.268 OA
BRANCH   3   5
ATOM      5  CA  TYR     5     -10.237  -5.052   4.908  1.00  0.00     0.191 C 
BRANCH   5   6
ATOM      6  N   TYR     5     -11.173  -4.190   4.142  1.00  0.00    -0.228 NA
ATOM      7  C   GLU     4     -11.192  -4.137   2.800  1.00  0.00     0.274 C 
ATOM      8  O   GLU     4     -10.536  -4.898   2.101  1.00  0.00    -0.268 OA
BRANCH   7   9
ATOM      9  CA  GLU     4     -12.322  -3.297   2.171  1.00  0.00     0.187 C 
BRANCH   9  10
ATOM     10  CB  GLU     4     -12.356  -3.524   0.651  1.00  0.00     0.045 C 
BRANCH  10  11
ATOM     11  CG  GLU     4     -12.642  -2.281  -0.219  1.00  0.00     0.100 C 
BRANCH  11  12
ATOM     12  CD  GLU     4     -11.426  -1.753  -0.980  1.00  0.00     0.185 C 
ATOM     13  OE1 GLU     4     -10.347  -1.644  -0.341  1.00  0.00    -0.647 OA
ATOM     14  OE2 GLU     4     -11.655  -1.044  -1.981  1.00  0.00    -0.647 OA
ENDBRANCH  11  12
ENDBRANCH  10  11
ENDBRANCH   9  10
BRANCH   9  15
ATOM     15  N   GLU     4     -12.185  -1.851   2.428  1.00  0.00    -0.229 NA
ATOM     16  C   PRO     3     -12.845  -1.108   3.309  1.00  0.00     0.272 C 
ATOM     17  O   PRO     3     -13.406  -1.575   4.301  1.00  0.00    -0.269 OA
BRANCH  16  18
ATOM     18  CA  PRO     3     -12.467   0.374   3.327  1.00  0.00     0.165 C 
ATOM     19  N   PRO     3     -11.016   0.647   3.252  1.00  0.00    -0.312 N 
ATOM     20  CD  PRO     3     -10.772   1.811   2.362  1.00  0.00     0.105 C 
ATOM     21  C   ASP     2     -10.094   0.023   4.008  1.00  0.00     0.257 C 
ATOM     22  CG  PRO     3     -12.175   2.368   2.073  1.00  0.00     0.027 C 
ATOM     23  CB  PRO     3     -13.077   1.141   2.155  1.00  0.00     0.034 C 
ATOM     24  O   ASP     2     -10.443  -0.675   4.972  1.00  0.00    -0.270 OA
BRANCH  21  25
ATOM     25  CA  ASP     2      -8.613   0.450   3.907  1.00  0.00     0.195 C 
BRANCH  25  26
ATOM     26  CB  ASP     2      -7.558  -0.669   4.104  1.00  0.00     0.132 C 
BRANCH  26  27
ATOM     27  CG  ASP     2      -6.217  -0.262   3.465  1.00  0.00     0.188 C 
ATOM     28  OD2 ASP     2      -6.002  -0.727   2.316  1.00  0.00    -0.647 OA
ATOM     29  OD1 ASP     2      -5.262  -0.040   4.250  1.00  0.00    -0.647 OA
ENDBRANCH  26  27
ENDBRANCH  25  26
BRANCH  25  30
ATOM     30  N   ASP     2      -8.244   1.422   4.951  1.00  0.00    -0.228 NA
ATOM     31  C   TYR     1      -7.765   2.630   4.764  1.00  0.00     0.289 C 
ATOM     32  O   TYR     1      -7.651   3.248   3.701  1.00  0.00    -0.268 OA
BRANCH  31  33
ATOM     33  CA  TYR     1      -7.295   3.265   6.069  1.00  0.00     0.385 C 
ATOM     34  N   TYR     1      -8.476   3.461   6.926  1.00  0.00     0.626 N 
BRANCH  33  35
ATOM     35  CB  TYR     1      -6.271   2.321   6.693  1.00  0.00     0.075 C 
BRANCH  35  36
ATOM     36  CG  TYR     1      -4.920   2.998   6.972  1.00  0.00    -0.019 A 
ATOM     37  CD2 TYR     1      -4.001   2.443   7.849  1.00  0.00    -0.002 A 
ATOM     38  CE2 TYR     1      -2.737   3.000   7.980  1.00  0.00     0.027 A 
ATOM     39  CZ  TYR     1      -2.409   4.125   7.224  1.00  0.00     0.131 A 
ATOM     40  CE1 TYR     1      -3.344   4.697   6.381  1.00  0.00     0.027 A 
ATOM     41  OH  TYR     1      -1.137   4.571   7.191  1.00  0.00    -0.190 OA
ATOM     42  CD1 TYR     1      -4.608   4.140   6.251  1.00  0.00    -0.002 A 
ENDBRANCH  35  36
ENDBRANCH  33  35
ENDBRANCH  31  33
ENDBRANCH  25  30
ENDBRANCH  21  25
ENDBRANCH  16  18
ENDBRANCH   9  15
ENDBRANCH   7   9
ENDBRANCH   5   6
BRANCH   5  43
ATOM     43  CB  TYR     5      -9.286  -4.182   5.749  1.00  0.00     0.060 C 
BRANCH  43  44
ATOM     44  CG  TYR     5      -8.348  -5.025   6.628  1.00  0.00    -0.020 A 
ATOM     45  CD2 TYR     5      -8.389  -4.917   8.013  1.00  0.00    -0.002 A 
ATOM     46  CE2 TYR     5      -7.541  -5.689   8.800  1.00  0.00     0.027 A 
ATOM     47  CZ  TYR     5      -6.652  -6.570   8.204  1.00  0.00     0.131 A 
ATOM     48  CE1 TYR     5      -6.616  -6.697   6.820  1.00  0.00     0.027 A 
ATOM     49  OH  TYR     5      -5.732  -7.218   8.951  1.00  0.00    -0.190 OA
ATOM     50  CD1 TYR     5      -7.461  -5.915   6.032  1.00  0.00    -0.002 A 
ENDBRANCH  43  44
ENDBRANCH   5  43
ENDBRANCH   3   5
ENDBRANCH   1   2
BRANCH   1  51
ATOM     51  CB  ARG     6     -10.794  -8.350   7.905  1.00  0.00     0.036 C 
BRANCH  51  52
ATOM     52  CG  ARG     6      -9.903  -9.484   8.418  1.00  0.00     0.029 C 
BRANCH  52  53
ATOM     53  CD  ARG     6      -8.680  -9.646   7.521  1.00  0.00     0.145 C 
BRANCH  53  54
ATOM     54  NE  ARG     6      -8.314 -11.065   7.378  1.00  0.00    -0.083 NA
ATOM     55  CZ  ARG     6      -8.569 -11.833   6.301  1.00  0.00     0.782 C 
ATOM     56  NH2 ARG     6      -8.268 -13.133   6.310  1.00  0.00     0.063 N 
ATOM     57  NH1 ARG     6      -9.203 -11.325   5.250  1.00  0.00     0.063 N 
ENDBRANCH  53  54
ENDBRANCH  52  53
ENDBRANCH  51  52
ENDBRANCH   1  51
BRANCH   1  58
ATOM     58  C   ARG     6     -12.688  -8.546   6.358  1.00  0.00     0.274 C 
ATOM     59  N   ASN     7     -13.210  -8.555   5.135  1.00  0.00    -0.228 NA
ATOM     60  O   ARG     6     -13.337  -8.585   7.405  1.00  0.00    -0.268 OA
BRANCH  59  61
ATOM     61  CA  ASN     7     -14.654  -8.716   4.866  1.00  0.00     0.196 C 
BRANCH  61  62
ATOM     62  C   ASN     7     -14.904  -9.589   3.620  1.00  0.00     0.275 C 
ATOM     63  N   PHE     8     -13.849 -10.247   3.117  1.00  0.00    -0.228 NA
ATOM     64  O   ASN     7     -16.050  -9.936   3.409  1.00  0.00    -0.268 OA
BRANCH  63  65
ATOM     65  CA  PHE     8     -13.906 -11.199   1.981  1.00  0.00     0.191 C 
BRANCH  65  66
ATOM     66  CB  PHE     8     -12.792 -10.833   0.991  1.00  0.00     0.060 C 
BRANCH  66  67
ATOM     67  CG  PHE     8     -13.249  -9.946  -0.183  1.00  0.00    -0.020 A 
ATOM     68  CD1 PHE     8     -13.262  -8.565  -0.043  1.00  0.00    -0.004 A 
ATOM     69  CE1 PHE     8     -13.772  -7.769  -1.068  1.00  0.00    -0.000 A 
ATOM     70  CZ  PHE     8     -14.249  -8.361  -2.227  1.00  0.00    -0.000 A 
ATOM     71  CE2 PHE     8     -14.224  -9.744  -2.374  1.00  0.00    -0.000 A 
ATOM     72  CD2 PHE     8     -13.714 -10.540  -1.349  1.00  0.00    -0.004 A 
ENDBRANCH  66  67
ENDBRANCH  65  66
BRANCH  65  73
ATOM     73  C   PHE     8     -13.850 -12.692   2.377  1.00  0.00     0.275 C 
ATOM     74  N   TRP     9     -14.260 -12.995   3.610  1.00  0.00    -0.228 NA
ATOM     75  O   PHE     8     -13.230 -13.507   1.689  1.00  0.00    -0.268 OA
BRANCH  74  76
ATOM     76  CA  TRP     9     -14.376 -14.397   4.079  1.00  0.00     0.191 C 
BRANCH  76  77
ATOM     77  CB  TRP     9     -14.422 -14.404   5.616  1.00  0.00     0.062 C 
BRANCH  77  78
ATOM     78  CG  TRP     9     -13.135 -14.923   6.255  1.00  0.00     0.001 A 
ATOM     79  CD1 TRP     9     -11.935 -14.358   6.163  1.00  0.00     0.095 A 
ATOM     80  NE1 TRP     9     -11.005 -15.211   6.575  1.00  0.00    -0.244 NA
ATOM     81  CE2 TRP     9     -11.580 -16.340   6.963  1.00  0.00     0.081 A 
ATOM     82  CD2 TRP     9     -12.945 -16.205   6.761  1.00  0.00     0.015 A 
ATOM     83  CZ2 TRP     9     -11.068 -17.565   7.389  1.00  0.00     0.019 A 
ATOM     84  CE3 TRP     9     -13.802 -17.277   6.964  1.00  0.00     0.001 A 
ATOM     85  CZ3 TRP     9     -13.292 -18.503   7.376  1.00  0.00     0.000 A 
ATOM     86  CH2 TRP     9     -11.923 -18.635   7.605  1.00  0.00     0.002 A 
ENDBRANCH  77  78
ENDBRANCH  76  77
BRANCH  76  87
ATOM     87  C   TRP     9     -15.560 -15.181   3.469  1.00  0.00     0.275 C 
ATOM     88  O   TRP     9     -16.687 -14.696   3.436  1.00  0.00    -0.268 OA
ATOM     89  N   GLY    10     -15.263 -16.350   2.903  1.00  0.00    -0.226 NA
BRANCH  89  90
ATOM     90  CA  GLY    10     -16.255 -17.230   2.226  1.00  0.00     0.218 C 
BRANCH  90  91
ATOM     91  C   GLY    10     -15.707 -18.157   1.129  1.00  0.00     0.277 C 
ATOM     92  N   CYS    11     -14.494 -17.841   0.678  1.00  0.00    -0.228 NA
ATOM     93  O   GLY    10     -16.428 -19.002   0.610  1.00  0.00    -0.268 OA
BRANCH  92  94
ATOM     94  CA  CYS    11     -13.720 -18.567  -0.354  1.00  0.00     0.198 C 
BRANCH  94  95
ATOM     95  C   CYS    11     -12.396 -19.035   0.283  1.00  0.00     0.275 C 
ATOM     96  O   CYS    11     -11.432 -19.254  -0.441  1.00  0.00    -0.268 OA
ATOM     97  N   GLY    12     -12.451 -19.361   1.566  1.00  0.00    -0.225 NA
BRANCH  97  98
ATOM     98  CA  GLY    12     -11.284 -19.841   2.322  1.00  0.00     0.226 C 
BRANCH  98  99
ATOM     99  C   GLY    12     -11.319 -19.185   3.722  1.00  0.00     0.211 C 
ATOM    100  O1  GLY    12     -11.969 -18.114   3.827  1.00  0.00    -0.646 OA
ATOM    101  O2  GLY    12     -10.737 -19.773   4.652  1.00  0.00    -0.646 OA
ENDBRANCH  98  99
ENDBRANCH  97  98
ENDBRANCH  94  95
BRANCH  94 102
ATOM    102  CB  CYS    11     -13.322 -17.615  -1.479  1.00  0.00     0.103 C 
ATOM    103  SG  CYS    11     -14.596 -16.405  -2.003  1.00  0.00    -0.080 SA
ENDBRANCH  94 102
ENDBRANCH  92  94
ENDBRANCH  90  91
ENDBRANCH  89  90
ENDBRANCH  76  87
ENDBRANCH  74  76
ENDBRANCH  65  73
ENDBRANCH  63  65
ENDBRANCH  61  62
BRANCH  61 104
ATOM    104  CB  ASN     7     -15.350  -7.356   4.728  1.00  0.00     0.126 C 
BRANCH 104 105
ATOM    105  CG  ASN     7     -15.039  -6.600   3.423  1.00  0.00     0.276 C 
ATOM    106  ND2 ASN     7     -16.060  -6.376   2.629  1.00  0.00    -0.107 N 
ATOM    107  OD1 ASN     7     -13.915  -6.339   3.013  1.00  0.00    -0.269 OA
ENDBRANCH 104 105
ENDBRANCH  61 104
ENDBRANCH  59  61
ENDBRANCH   1  58
TORSDOF 42
ENDMDL
MODEL 7
REMARK VINA RESULT:      -5.7     30.064     40.169
REMARK WARNING: 32 MAX_TORS EXCEEDED!!!
REMARK  42 active torsions:
REMARK  status: ('A' for Active; 'I' for Inactive)
REMARK    1  A    between atoms: CA_2  and  CB_3 
REMARK    2  A    between atoms: CA_2  and  C_11 
REMARK    3  A    between atoms: CB_3  and  CG_4 
REMARK       I    between atoms: C_11  and  N_13 
REMARK    4  A    between atoms: N_13  and  CA_14 
REMARK    5  A    between atoms: CA_14  and  CB_15 
REMARK    6  A    between atoms: CA_14  and  C_19 
REMARK    7  A    between atoms: CB_15  and  CG_16 
REMARK       I    between atoms: C_19  and  N_21 
REMARK    8  A    between atoms: CA_22  and  C_26 
REMARK       I    between atoms: C_26  and  N_28 
REMARK    9  A    between atoms: N_28  and  CA_29 
REMARK   10  A    between atoms: CA_29  and  C_35 
REMARK   11  A    between atoms: CA_29  and  CB_30 
REMARK   12  A    between atoms: CB_30  and  CG_31 
REMARK   13  A    between atoms: CG_31  and  CD_32 
REMARK       I    between atoms: C_35  and  N_37 
REMARK   14  A    between atoms: N_37  and  CA_38 
REMARK   15  A    between atoms: CA_38  and  CB_39 
REMARK   16  A    between atoms: CA_38  and  C_47 
REMARK   17  A    between atoms: CB_39  and  CG_40 
REMARK       I    between atoms: C_47  and  N_49 
REMARK   18  A    between atoms: N_49  and  CA_50 
REMARK   19  A    between atoms: CA_50  and  CB_51 
REMARK   20  A    between atoms: CA_50  and  C_58 
REMARK   21  A    between atoms: CB_51  and  CG_52 
REMARK   22  A    between atoms: CG_52  and  CD_53 
REMARK   23  A    between atoms: CD_53  and  NE_54 
REMARK       I    between atoms: C_58  and  N_60 
REMARK   24  A    between atoms: N_60  and  CA_61 
REMARK   25  A    between atoms: CA_61  and  C_66 
REMARK   26  A    between atoms: CA_61  and  CB_62 
REMARK   27  A    between atoms: CB_62  and  CG_63 
REMARK       I    between atoms: C_66  and  N_68 
REMARK   28  A    between atoms: N_68  and  CA_69 
REMARK   29  A    between atoms: CA_69  and  CB_70 
REMARK   30  A    between atoms: CA_69  and  C_77 
REMARK   31  A    between atoms: CB_70  and  CG_71 
REMARK       I    between atoms: C_77  and  N_79 
REMARK   32  A    between atoms: N_79  and  CA_80 
REMARK   33  A    between atoms: CA_80  and  CB_81 
REMARK   34  A    between atoms: CA_80  and  C_91 
REMARK   35  A    between atoms: CB_81  and  CG_82 
REMARK       I    between atoms: C_91  and  N_93 
REMARK   36  A    between atoms: N_93  and  CA_94 
REMARK   37  A    between atoms: CA_94  and  C_95 
REMARK       I    between atoms: C_95  and  N_97 
REMARK   38  A    between atoms: N_97  and  CA_98 
REMARK   39  A    between atoms: CA_98  and  C_101 
REMARK   40  A    between atoms: CA_98  and  CB_99 
REMARK       I    between atoms: C_101  and  N_103 
REMARK   41  A    between atoms: N_103  and  CA_104 
REMARK   42  A    between atoms: CA_104  and  C_105 
ROOT
ATOM      1  CA  ARG     6      -0.458 -29.577   5.193  1.00  0.00     0.186 C 
ENDROOT
BRANCH   1   2
ATOM      2  N   ARG     6      -1.561 -28.765   4.628  1.00  0.00    -0.229 NA
ATOM      3  C   TYR     5      -2.510 -29.291   3.842  1.00  0.00     0.275 C 
ATOM      4  O   TYR     5      -2.543 -30.490   3.562  1.00  0.00    -0.268 OA
BRANCH   3   5
ATOM      5  CA  TYR     5      -3.638 -28.353   3.383  1.00  0.00     0.191 C 
BRANCH   5   6
ATOM      6  N   TYR     5      -4.990 -28.962   3.479  1.00  0.00    -0.228 NA
ATOM      7  C   GLU     4      -5.875 -28.949   2.468  1.00  0.00     0.274 C 
ATOM      8  O   GLU     4      -5.586 -28.561   1.344  1.00  0.00    -0.268 OA
BRANCH   7   9
ATOM      9  CA  GLU     4      -7.174 -29.749   2.695  1.00  0.00     0.187 C 
BRANCH   9  10
ATOM     10  CB  GLU     4      -7.233 -30.935   1.719  1.00  0.00     0.045 C 
BRANCH  10  11
ATOM     11  CG  GLU     4      -6.069 -31.947   1.801  1.00  0.00     0.100 C 
BRANCH  11  12
ATOM     12  CD  GLU     4      -6.507 -33.396   2.004  1.00  0.00     0.185 C 
ATOM     13  OE1 GLU     4      -5.960 -34.272   1.285  1.00  0.00    -0.647 OA
ATOM     14  OE2 GLU     4      -7.646 -33.576   2.481  1.00  0.00    -0.647 OA
ENDBRANCH  11  12
ENDBRANCH  10  11
ENDBRANCH   9  10
BRANCH   9  15
ATOM     15  N   GLU     4      -8.395 -28.938   2.526  1.00  0.00    -0.229 NA
ATOM     16  C   PRO     3      -8.877 -28.003   3.337  1.00  0.00     0.272 C 
ATOM     17  O   PRO     3      -8.189 -27.408   4.168  1.00  0.00    -0.269 OA
BRANCH  16  18
ATOM     18  CA  PRO     3     -10.176 -27.342   2.871  1.00  0.00     0.165 C 
ATOM     19  N   PRO     3     -10.129 -26.771   1.508  1.00  0.00    -0.312 N 
ATOM     20  CD  PRO     3     -11.407 -27.051   0.805  1.00  0.00     0.105 C 
ATOM     21  C   ASP     2      -9.134 -25.986   1.056  1.00  0.00     0.257 C 
ATOM     22  CG  PRO     3     -12.319 -27.636   1.895  1.00  0.00     0.027 C 
ATOM     23  CB  PRO     3     -11.348 -28.321   2.852  1.00  0.00     0.034 C 
ATOM     24  O   ASP     2      -8.295 -25.523   1.844  1.00  0.00    -0.270 OA
BRANCH  21  25
ATOM     25  CA  ASP     2      -9.231 -25.374  -0.359  1.00  0.00     0.195 C 
BRANCH  25  26
ATOM     26  CB  ASP     2      -8.240 -25.923  -1.418  1.00  0.00     0.132 C 
BRANCH  26  27
ATOM     27  CG  ASP     2      -8.364 -27.454  -1.527  1.00  0.00     0.188 C 
ATOM     28  OD2 ASP     2      -7.280 -28.090  -1.469  1.00  0.00    -0.647 OA
ATOM     29  OD1 ASP     2      -9.325 -27.896  -2.204  1.00  0.00    -0.647 OA
ENDBRANCH  26  27
ENDBRANCH  25  26
BRANCH  25  30
ATOM     30  N   ASP     2      -8.932 -23.932  -0.360  1.00  0.00    -0.228 NA
ATOM     31  C   TYR     1      -9.526 -23.007  -1.079  1.00  0.00     0.289 C 
ATOM     32  O   TYR     1     -10.530 -23.123  -1.788  1.00  0.00    -0.268 OA
BRANCH  31  33
ATOM     33  CA  TYR     1      -8.810 -21.663  -0.984  1.00  0.00     0.385 C 
ATOM     34  N   TYR     1      -8.982 -20.969  -2.271  1.00  0.00     0.626 N 
BRANCH  33  35
ATOM     35  CB  TYR     1      -9.433 -20.897   0.181  1.00  0.00     0.075 C 
BRANCH  35  36
ATOM     36  CG  TYR     1      -8.509 -20.808   1.405  1.00  0.00    -0.019 A 
ATOM     37  CD2 TYR     1      -8.997 -20.465   2.656  1.00  0.00    -0.002 A 
ATOM     38  CE2 TYR     1      -8.170 -20.524   3.768  1.00  0.00     0.027 A 
ATOM     39  CZ  TYR     1      -6.845 -20.925   3.609  1.00  0.00     0.131 A 
ATOM     40  CE1 TYR     1      -6.353 -21.227   2.351  1.00  0.00     0.027 A 
ATOM     41  OH  TYR     1      -6.076 -21.171   4.689  1.00  0.00    -0.190 OA
ATOM     42  CD1 TYR     1      -7.180 -21.168   1.240  1.00  0.00    -0.002 A 
ENDBRANCH  35  36
ENDBRANCH  33  35
ENDBRANCH  31  33
ENDBRANCH  25  30
ENDBRANCH  21  25
ENDBRANCH  16  18
ENDBRANCH   9  15
ENDBRANCH   7   9
ENDBRANCH   5   6
BRANCH   5  43
ATOM     43  CB  TYR     5      -3.600 -27.026   4.159  1.00  0.00     0.060 C 
BRANCH  43  44
ATOM     44  CG  TYR     5      -3.567 -25.805   3.225  1.00  0.00    -0.020 A 
ATOM     45  CD2 TYR     5      -3.690 -25.962   1.851  1.00  0.00    -0.002 A 
ATOM     46  CE2 TYR     5      -3.666 -24.850   1.014  1.00  0.00     0.027 A 
ATOM     47  CZ  TYR     5      -3.520 -23.581   1.553  1.00  0.00     0.131 A 
ATOM     48  CE1 TYR     5      -3.414 -23.413   2.929  1.00  0.00     0.027 A 
ATOM     49  OH  TYR     5      -3.356 -22.513   0.742  1.00  0.00    -0.190 OA
ATOM     50  CD1 TYR     5      -3.429 -24.530   3.764  1.00  0.00    -0.002 A 
ENDBRANCH  43  44
ENDBRANCH   5  43
ENDBRANCH   3   5
ENDBRANCH   1   2
BRANCH   1  51
ATOM     51  CB  ARG     6      -0.952 -30.686   6.117  1.00  0.00     0.036 C 
BRANCH  51  52
ATOM     52  CG  ARG     6      -0.626 -30.447   7.594  1.00  0.00     0.029 C 
BRANCH  52  53
ATOM     53  CD  ARG     6       0.485 -29.410   7.731  1.00  0.00     0.145 C 
BRANCH  53  54
ATOM     54  NE  ARG     6       1.810 -30.051   7.728  1.00  0.00    -0.083 NA
ATOM     55  CZ  ARG     6       2.989 -29.408   7.633  1.00  0.00     0.782 C 
ATOM     56  NH2 ARG     6       4.131 -30.094   7.555  1.00  0.00     0.063 N 
ATOM     57  NH1 ARG     6       3.024 -28.084   7.530  1.00  0.00     0.063 N 
ENDBRANCH  53  54
ENDBRANCH  52  53
ENDBRANCH  51  52
ENDBRANCH   1  51
BRANCH   1  58
ATOM     58  C   ARG     6       0.389 -30.254   4.108  1.00  0.00     0.274 C 
ATOM     59  N   ASN     7       0.745 -31.511   4.355  1.00  0.00    -0.228 NA
ATOM     60  O   ARG     6       0.690 -29.618   3.097  1.00  0.00    -0.268 OA
BRANCH  59  61
ATOM     61  CA  ASN     7       1.476 -32.356   3.388  1.00  0.00     0.196 C 
BRANCH  61  62
ATOM     62  C   ASN     7       0.879 -33.775   3.310  1.00  0.00     0.275 C 
ATOM     63  N   PHE     8       1.747 -34.797   3.275  1.00  0.00    -0.228 NA
ATOM     64  O   ASN     7      -0.275 -33.911   3.667  1.00  0.00    -0.268 OA
BRANCH  63  65
ATOM     65  CA  PHE     8       1.369 -36.231   3.286  1.00  0.00     0.191 C 
BRANCH  65  66
ATOM     66  CB  PHE     8       2.547 -37.043   2.729  1.00  0.00     0.060 C 
BRANCH  66  67
ATOM     67  CG  PHE     8       2.210 -37.879   1.480  1.00  0.00    -0.020 A 
ATOM     68  CD1 PHE     8       0.918 -38.350   1.290  1.00  0.00    -0.004 A 
ATOM     69  CE1 PHE     8       0.638 -39.191   0.212  1.00  0.00    -0.000 A 
ATOM     70  CZ  PHE     8       1.648 -39.538  -0.670  1.00  0.00    -0.000 A 
ATOM     71  CE2 PHE     8       2.940 -39.056  -0.489  1.00  0.00    -0.000 A 
ATOM     72  CD2 PHE     8       3.220 -38.215   0.588  1.00  0.00    -0.004 A 
ENDBRANCH  66  67
ENDBRANCH  65  66
BRANCH  65  73
ATOM     73  C   PHE     8       0.899 -36.772   4.655  1.00  0.00     0.275 C 
ATOM     74  N   TRP     9      -0.137 -37.613   4.637  1.00  0.00    -0.228 NA
ATOM     75  O   PHE     8       1.291 -36.261   5.707  1.00  0.00    -0.268 OA
BRANCH  74  76
ATOM     76  CA  TRP     9      -0.613 -38.302   5.862  1.00  0.00     0.191 C 
BRANCH  76  77
ATOM     77  CB  TRP     9      -2.079 -37.912   6.113  1.00  0.00     0.062 C 
BRANCH  77  78
ATOM     78  CG  TRP     9      -2.237 -36.503   6.684  1.00  0.00     0.001 A 
ATOM     79  CD1 TRP     9      -2.137 -36.164   7.966  1.00  0.00     0.095 A 
ATOM     80  NE1 TRP     9      -2.616 -34.940   8.145  1.00  0.00    -0.244 NA
ATOM     81  CE2 TRP     9      -3.020 -34.448   6.984  1.00  0.00     0.081 A 
ATOM     82  CD2 TRP     9      -2.809 -35.422   6.020  1.00  0.00     0.015 A 
ATOM     83  CZ2 TRP     9      -3.669 -33.265   6.631  1.00  0.00     0.019 A 
ATOM     84  CE3 TRP     9      -3.248 -35.240   4.718  1.00  0.00     0.001 A 
ATOM     85  CZ3 TRP     9      -3.908 -34.067   4.367  1.00  0.00     0.000 A 
ATOM     86  CH2 TRP     9      -4.098 -33.074   5.326  1.00  0.00     0.002 A 
ENDBRANCH  77  78
ENDBRANCH  76  77
BRANCH  76  87
ATOM     87  C   TRP     9      -0.426 -39.836   5.848  1.00  0.00     0.275 C 
ATOM     88  O   TRP     9       0.456 -40.357   5.172  1.00  0.00    -0.268 OA
ATOM     89  N   GLY    10      -1.202 -40.531   6.680  1.00  0.00    -0.226 NA
BRANCH  89  90
ATOM     90  CA  GLY    10      -1.142 -42.009   6.843  1.00  0.00     0.218 C 
BRANCH  90  91
ATOM     91  C   GLY    10      -2.488 -42.753   6.820  1.00  0.00     0.277 C 
ATOM     92  N   CYS    11      -3.375 -42.284   5.943  1.00  0.00    -0.228 NA
ATOM     93  O   GLY    10      -2.752 -43.590   7.675  1.00  0.00    -0.268 OA
BRANCH  92  94
ATOM     94  CA  CYS    11      -4.732 -42.818   5.692  1.00  0.00     0.198 C 
BRANCH  94  95
ATOM     95  C   CYS    11      -4.791 -43.307   4.232  1.00  0.00     0.275 C 
ATOM     96  O   CYS    11      -5.751 -42.993   3.536  1.00  0.00    -0.268 OA
ATOM     97  N   GLY    12      -3.885 -44.209   3.883  1.00  0.00    -0.225 NA
BRANCH  97  98
ATOM     98  CA  GLY    12      -3.811 -44.792   2.534  1.00  0.00     0.226 C 
BRANCH  98  99
ATOM     99  C   GLY    12      -2.481 -45.573   2.424  1.00  0.00     0.211 C 
ATOM    100  O1  GLY    12      -1.575 -45.048   1.729  1.00  0.00    -0.646 OA
ATOM    101  O2  GLY    12      -2.383 -46.643   3.052  1.00  0.00    -0.646 OA
ENDBRANCH  98  99
ENDBRANCH  97  98
ENDBRANCH  94  95
BRANCH  94 102
ATOM    102  CB  CYS    11      -5.765 -41.697   5.793  1.00  0.00     0.103 C 
ATOM    103  SG  CYS    11      -5.464 -40.436   7.090  1.00  0.00    -0.080 SA
ENDBRANCH  94 102
ENDBRANCH  92  94
ENDBRANCH  90  91
ENDBRANCH  89  90
ENDBRANCH  76  87
ENDBRANCH  74  76
ENDBRANCH  65  73
ENDBRANCH  63  65
ENDBRANCH  61  62
BRANCH  61 104
ATOM    104  CB  ASN     7       2.973 -32.411   3.717  1.00  0.00     0.126 C 
BRANCH 104 105
ATOM    105  CG  ASN     7       3.821 -31.306   3.060  1.00  0.00     0.276 C 
ATOM    106  ND2 ASN     7       4.066 -30.250   3.801  1.00  0.00    -0.107 N 
ATOM    107  OD1 ASN     7       4.140 -31.274   1.878  1.00  0.00    -0.269 OA
ENDBRANCH 104 105
ENDBRANCH  61 104
ENDBRANCH  59  61
ENDBRANCH   1  58
TORSDOF 42
ENDMDL
MODEL 8
REMARK VINA RESULT:      -5.6      1.624      1.986
REMARK WARNING: 32 MAX_TORS EXCEEDED!!!
REMARK  42 active torsions:
REMARK  status: ('A' for Active; 'I' for Inactive)
REMARK    1  A    between atoms: CA_2  and  CB_3 
REMARK    2  A    between atoms: CA_2  and  C_11 
REMARK    3  A    between atoms: CB_3  and  CG_4 
REMARK       I    between atoms: C_11  and  N_13 
REMARK    4  A    between atoms: N_13  and  CA_14 
REMARK    5  A    between atoms: CA_14  and  CB_15 
REMARK    6  A    between atoms: CA_14  and  C_19 
REMARK    7  A    between atoms: CB_15  and  CG_16 
REMARK       I    between atoms: C_19  and  N_21 
REMARK    8  A    between atoms: CA_22  and  C_26 
REMARK       I    between atoms: C_26  and  N_28 
REMARK    9  A    between atoms: N_28  and  CA_29 
REMARK   10  A    between atoms: CA_29  and  C_35 
REMARK   11  A    between atoms: CA_29  and  CB_30 
REMARK   12  A    between atoms: CB_30  and  CG_31 
REMARK   13  A    between atoms: CG_31  and  CD_32 
REMARK       I    between atoms: C_35  and  N_37 
REMARK   14  A    between atoms: N_37  and  CA_38 
REMARK   15  A    between atoms: CA_38  and  CB_39 
REMARK   16  A    between atoms: CA_38  and  C_47 
REMARK   17  A    between atoms: CB_39  and  CG_40 
REMARK       I    between atoms: C_47  and  N_49 
REMARK   18  A    between atoms: N_49  and  CA_50 
REMARK   19  A    between atoms: CA_50  and  CB_51 
REMARK   20  A    between atoms: CA_50  and  C_58 
REMARK   21  A    between atoms: CB_51  and  CG_52 
REMARK   22  A    between atoms: CG_52  and  CD_53 
REMARK   23  A    between atoms: CD_53  and  NE_54 
REMARK       I    between atoms: C_58  and  N_60 
REMARK   24  A    between atoms: N_60  and  CA_61 
REMARK   25  A    between atoms: CA_61  and  C_66 
REMARK   26  A    between atoms: CA_61  and  CB_62 
REMARK   27  A    between atoms: CB_62  and  CG_63 
REMARK       I    between atoms: C_66  and  N_68 
REMARK   28  A    between atoms: N_68  and  CA_69 
REMARK   29  A    between atoms: CA_69  and  CB_70 
REMARK   30  A    between atoms: CA_69  and  C_77 
REMARK   31  A    between atoms: CB_70  and  CG_71 
REMARK       I    between atoms: C_77  and  N_79 
REMARK   32  A    between atoms: N_79  and  CA_80 
REMARK   33  A    between atoms: CA_80  and  CB_81 
REMARK   34  A    between atoms: CA_80  and  C_91 
REMARK   35  A    between atoms: CB_81  and  CG_82 
REMARK       I    between atoms: C_91  and  N_93 
REMARK   36  A    between atoms: N_93  and  CA_94 
REMARK   37  A    between atoms: CA_94  and  C_95 
REMARK       I    between atoms: C_95  and  N_97 
REMARK   38  A    between atoms: N_97  and  CA_98 
REMARK   39  A    between atoms: CA_98  and  C_101 
REMARK   40  A    between atoms: CA_98  and  CB_99 
REMARK       I    between atoms: C_101  and  N_103 
REMARK   41  A    between atoms: N_103  and  CA_104 
REMARK   42  A    between atoms: CA_104  and  C_105 
ROOT
ATOM      1  CA  ARG     6      -2.771   8.595   4.691  1.00  0.00     0.186 C 
ENDROOT
BRANCH   1   2
ATOM      2  N   ARG     6      -3.339   9.328   3.536  1.00  0.00    -0.229 NA
ATOM      3  C   TYR     5      -2.610  10.170   2.791  1.00  0.00     0.275 C 
ATOM      4  O   TYR     5      -1.413  10.366   3.000  1.00  0.00    -0.268 OA
BRANCH   3   5
ATOM      5  CA  TYR     5      -3.302  10.809   1.576  1.00  0.00     0.191 C 
BRANCH   5   6
ATOM      6  N   TYR     5      -4.592  11.468   1.907  1.00  0.00    -0.228 NA
ATOM      7  C   GLU     4      -4.743  12.303   2.949  1.00  0.00     0.274 C 
ATOM      8  O   GLU     4      -3.800  12.695   3.623  1.00  0.00    -0.268 OA
BRANCH   7   9
ATOM      9  CA  GLU     4      -6.112  13.005   3.060  1.00  0.00     0.187 C 
BRANCH   9  10
ATOM     10  CB  GLU     4      -6.650  13.324   1.656  1.00  0.00     0.045 C 
BRANCH  10  11
ATOM     11  CG  GLU     4      -6.519  14.791   1.190  1.00  0.00     0.100 C 
BRANCH  11  12
ATOM     12  CD  GLU     4      -7.644  15.261   0.268  1.00  0.00     0.185 C 
ATOM     13  OE1 GLU     4      -8.399  16.172   0.697  1.00  0.00    -0.647 OA
ATOM     14  OE2 GLU     4      -8.039  14.450  -0.593  1.00  0.00    -0.647 OA
ENDBRANCH  11  12
ENDBRANCH  10  11
ENDBRANCH   9  10
BRANCH   9  15
ATOM     15  N   GLU     4      -6.062  14.257   3.840  1.00  0.00    -0.229 NA
ATOM     16  C   PRO     3      -6.564  14.491   5.047  1.00  0.00     0.272 C 
ATOM     17  O   PRO     3      -6.824  13.599   5.856  1.00  0.00    -0.269 OA
BRANCH  16  18
ATOM     18  CA  PRO     3      -6.342  15.907   5.583  1.00  0.00     0.165 C 
ATOM     19  N   PRO     3      -4.948  16.393   5.499  1.00  0.00    -0.312 N 
ATOM     20  CD  PRO     3      -4.940  17.820   5.087  1.00  0.00     0.105 C 
ATOM     21  C   ASP     2      -3.879  15.678   5.894  1.00  0.00     0.257 C 
ATOM     22  CG  PRO     3      -6.418  18.237   5.138  1.00  0.00     0.027 C 
ATOM     23  CB  PRO     3      -7.171  16.946   4.831  1.00  0.00     0.034 C 
ATOM     24  O   ASP     2      -4.029  14.640   6.555  1.00  0.00    -0.270 OA
BRANCH  21  25
ATOM     25  CA  ASP     2      -2.474  16.319   5.841  1.00  0.00     0.195 C 
BRANCH  25  26
ATOM     26  CB  ASP     2      -2.251  17.566   6.735  1.00  0.00     0.132 C 
BRANCH  26  27
ATOM     27  CG  ASP     2      -1.406  17.198   7.969  1.00  0.00     0.188 C 
ATOM     28  OD2 ASP     2      -1.251  15.967   8.172  1.00  0.00    -0.647 OA
ATOM     29  OD1 ASP     2      -1.435  18.003   8.933  1.00  0.00    -0.647 OA
ENDBRANCH  26  27
ENDBRANCH  25  26
BRANCH  25  30
ATOM     30  N   ASP     2      -2.149  16.829   4.498  1.00  0.00    -0.228 NA
ATOM     31  C   TYR     1      -1.875  16.114   3.432  1.00  0.00     0.289 C 
ATOM     32  O   TYR     1      -1.965  14.890   3.293  1.00  0.00    -0.268 OA
BRANCH  31  33
ATOM     33  CA  TYR     1      -1.374  16.977   2.278  1.00  0.00     0.385 C 
ATOM     34  N   TYR     1      -0.858  18.233   2.846  1.00  0.00     0.626 N 
BRANCH  33  35
ATOM     35  CB  TYR     1      -0.296  16.179   1.548  1.00  0.00     0.075 C 
BRANCH  35  36
ATOM     36  CG  TYR     1       1.130  16.605   1.931  1.00  0.00    -0.019 A 
ATOM     37  CD2 TYR     1       1.779  16.055   3.026  1.00  0.00    -0.002 A 
ATOM     38  CE2 TYR     1       3.110  16.355   3.270  1.00  0.00     0.027 A 
ATOM     39  CZ  TYR     1       3.783  17.219   2.407  1.00  0.00     0.131 A 
ATOM     40  CE1 TYR     1       3.117  17.797   1.340  1.00  0.00     0.027 A 
ATOM     41  OH  TYR     1       5.117  17.379   2.511  1.00  0.00    -0.190 OA
ATOM     42  CD1 TYR     1       1.786  17.497   1.096  1.00  0.00    -0.002 A 
ENDBRANCH  35  36
ENDBRANCH  33  35
ENDBRANCH  31  33
ENDBRANCH  25  30
ENDBRANCH  21  25
ENDBRANCH  16  18
ENDBRANCH   9  15
ENDBRANCH   7   9
ENDBRANCH   5   6
BRANCH   5  43
ATOM     43  CB  TYR     5      -2.366  11.805   0.871  1.00  0.00     0.060 C 
BRANCH  43  44
ATOM     44  CG  TYR     5      -3.117  12.710  -0.120  1.00  0.00    -0.020 A 
ATOM     45  CD2 TYR     5      -3.942  12.161  -1.093  1.00  0.00    -0.002 A 
ATOM     46  CE2 TYR     5      -4.623  12.988  -1.981  1.00  0.00     0.027 A 
ATOM     47  CZ  TYR     5      -4.478  14.364  -1.897  1.00  0.00     0.131 A 
ATOM     48  CE1 TYR     5      -3.667  14.922  -0.915  1.00  0.00     0.027 A 
ATOM     49  OH  TYR     5      -5.022  15.164  -2.839  1.00  0.00    -0.190 OA
ATOM     50  CD1 TYR     5      -2.979  14.090  -0.031  1.00  0.00    -0.002 A 
ENDBRANCH  43  44
ENDBRANCH   5  43
ENDBRANCH   3   5
ENDBRANCH   1   2
BRANCH   1  51
ATOM     51  CB  ARG     6      -3.051   9.280   6.025  1.00  0.00     0.036 C 
BRANCH  51  52
ATOM     52  CG  ARG     6      -4.539   9.352   6.379  1.00  0.00     0.029 C 
BRANCH  52  53
ATOM     53  CD  ARG     6      -4.729   9.996   7.749  1.00  0.00     0.145 C 
BRANCH  53  54
ATOM     54  NE  ARG     6      -6.137  10.367   7.966  1.00  0.00    -0.083 NA
ATOM     55  CZ  ARG     6      -6.565  11.510   8.536  1.00  0.00     0.782 C 
ATOM     56  NH2 ARG     6      -7.865  11.710   8.762  1.00  0.00     0.063 N 
ATOM     57  NH1 ARG     6      -5.691  12.417   8.960  1.00  0.00     0.063 N 
ENDBRANCH  53  54
ENDBRANCH  52  53
ENDBRANCH  51  52
ENDBRANCH   1  51
BRANCH   1  58
ATOM     58  C   ARG     6      -3.319   7.167   4.808  1.00  0.00     0.274 C 
ATOM     59  N   ASN     7      -3.129   6.570   5.981  1.00  0.00    -0.228 NA
ATOM     60  O   ARG     6      -3.885   6.660   3.839  1.00  0.00    -0.268 OA
BRANCH  59  61
ATOM     61  CA  ASN     7      -3.671   5.236   6.313  1.00  0.00     0.196 C 
BRANCH  61  62
ATOM     62  C   ASN     7      -5.211   5.218   6.254  1.00  0.00     0.275 C 
ATOM     63  N   PHE     8      -5.782   4.181   5.624  1.00  0.00    -0.228 NA
ATOM     64  O   ASN     7      -5.804   5.890   7.075  1.00  0.00    -0.268 OA
BRANCH  63  65
ATOM     65  CA  PHE     8      -7.244   3.942   5.537  1.00  0.00     0.191 C 
BRANCH  65  66
ATOM     66  CB  PHE     8      -7.539   3.254   4.198  1.00  0.00     0.060 C 
BRANCH  66  67
ATOM     67  CG  PHE     8      -7.235   1.744   4.178  1.00  0.00    -0.020 A 
ATOM     68  CD1 PHE     8      -5.920   1.304   4.109  1.00  0.00    -0.004 A 
ATOM     69  CE1 PHE     8      -5.650  -0.059   3.988  1.00  0.00    -0.000 A 
ATOM     70  CZ  PHE     8      -6.695  -0.967   3.953  1.00  0.00    -0.000 A 
ATOM     71  CE2 PHE     8      -8.013  -0.530   4.036  1.00  0.00    -0.000 A 
ATOM     72  CD2 PHE     8      -8.283   0.833   4.157  1.00  0.00    -0.004 A 
ENDBRANCH  66  67
ENDBRANCH  65  66
BRANCH  65  73
ATOM     73  C   PHE     8      -7.850   3.163   6.726  1.00  0.00     0.275 C 
ATOM     74  N   TRP     9      -9.180   3.061   6.753  1.00  0.00    -0.228 NA
ATOM     75  O   PHE     8      -7.166   2.879   7.713  1.00  0.00    -0.268 OA
BRANCH  74  76
ATOM     76  CA  TRP     9      -9.886   2.239   7.766  1.00  0.00     0.191 C 
BRANCH  76  77
ATOM     77  CB  TRP     9     -11.397   2.299   7.487  1.00  0.00     0.062 C 
BRANCH  77  78
ATOM     78  CG  TRP     9     -11.772   1.803   6.091  1.00  0.00     0.001 A 
ATOM     79  CD1 TRP     9     -11.263   2.242   4.944  1.00  0.00     0.095 A 
ATOM     80  NE1 TRP     9     -12.009   1.818   3.932  1.00  0.00    -0.244 NA
ATOM     81  CE2 TRP     9     -13.007   1.080   4.395  1.00  0.00     0.081 A 
ATOM     82  CD2 TRP     9     -12.902   1.054   5.777  1.00  0.00     0.015 A 
ATOM     83  CZ2 TRP     9     -14.105   0.480   3.781  1.00  0.00     0.019 A 
ATOM     84  CE3 TRP     9     -13.882   0.454   6.553  1.00  0.00     0.001 A 
ATOM     85  CZ3 TRP     9     -14.985  -0.133   5.943  1.00  0.00     0.000 A 
ATOM     86  CH2 TRP     9     -15.081  -0.133   4.553  1.00  0.00     0.002 A 
ENDBRANCH  77  78
ENDBRANCH  76  77
BRANCH  76  87
ATOM     87  C   TRP     9      -9.384   0.781   7.872  1.00  0.00     0.275 C 
ATOM     88  O   TRP     9      -8.351   0.513   8.479  1.00  0.00    -0.268 OA
ATOM     89  N   GLY    10     -10.183  -0.155   7.362  1.00  0.00    -0.226 NA
BRANCH  89  90
ATOM     90  CA  GLY    10      -9.897  -1.615   7.404  1.00  0.00     0.218 C 
BRANCH  90  91
ATOM     91  C   GLY    10     -10.581  -2.476   6.330  1.00  0.00     0.277 C 
ATOM     92  N   CYS    11      -9.754  -3.200   5.577  1.00  0.00    -0.228 NA
ATOM     93  O   GLY    10     -11.778  -2.347   6.097  1.00  0.00    -0.268 OA
BRANCH  92  94
ATOM     94  CA  CYS    11     -10.137  -4.129   4.490  1.00  0.00     0.198 C 
BRANCH  94  95
ATOM     95  C   CYS    11      -9.093  -5.262   4.440  1.00  0.00     0.275 C 
ATOM     96  O   CYS    11      -8.298  -5.299   3.507  1.00  0.00    -0.268 OA
ATOM     97  N   GLY    12      -9.256  -6.242   5.316  1.00  0.00    -0.225 NA
BRANCH  97  98
ATOM     98  CA  GLY    12      -8.359  -7.406   5.393  1.00  0.00     0.226 C 
BRANCH  98  99
ATOM     99  C   GLY    12      -7.479  -7.248   6.654  1.00  0.00     0.211 C 
ATOM    100  O1  GLY    12      -6.552  -8.084   6.803  1.00  0.00    -0.646 OA
ATOM    101  O2  GLY    12      -7.720  -6.292   7.414  1.00  0.00    -0.646 OA
ENDBRANCH  98  99
ENDBRANCH  97  98
ENDBRANCH  94  95
BRANCH  94 102
ATOM    102  CB  CYS    11     -10.045  -3.424   3.139  1.00  0.00     0.103 C 
ATOM    103  SG  CYS    11     -11.411  -3.754   1.960  1.00  0.00    -0.080 SA
ENDBRANCH  94 102
ENDBRANCH  92  94
ENDBRANCH  90  91
ENDBRANCH  89  90
ENDBRANCH  76  87
ENDBRANCH  74  76
ENDBRANCH  65  73
ENDBRANCH  63  65
ENDBRANCH  61  62
BRANCH  61 104
ATOM    104  CB  ASN     7      -3.172   4.758   7.683  1.00  0.00     0.126 C 
BRANCH 104 105
ATOM    105  CG  ASN     7      -2.753   3.277   7.738  1.00  0.00     0.276 C 
ATOM    106  ND2 ASN     7      -1.491   3.025   7.476  1.00  0.00    -0.107 N 
ATOM    107  OD1 ASN     7      -3.524   2.333   7.851  1.00  0.00    -0.269 OA
ENDBRANCH 104 105
ENDBRANCH  61 104
ENDBRANCH  59  61
ENDBRANCH   1  58
TORSDOF 42
ENDMDL
MODEL 9
REMARK VINA RESULT:      -5.6      1.781      2.691
REMARK WARNING: 32 MAX_TORS EXCEEDED!!!
REMARK  42 active torsions:
REMARK  status: ('A' for Active; 'I' for Inactive)
REMARK    1  A    between atoms: CA_2  and  CB_3 
REMARK    2  A    between atoms: CA_2  and  C_11 
REMARK    3  A    between atoms: CB_3  and  CG_4 
REMARK       I    between atoms: C_11  and  N_13 
REMARK    4  A    between atoms: N_13  and  CA_14 
REMARK    5  A    between atoms: CA_14  and  CB_15 
REMARK    6  A    between atoms: CA_14  and  C_19 
REMARK    7  A    between atoms: CB_15  and  CG_16 
REMARK       I    between atoms: C_19  and  N_21 
REMARK    8  A    between atoms: CA_22  and  C_26 
REMARK       I    between atoms: C_26  and  N_28 
REMARK    9  A    between atoms: N_28  and  CA_29 
REMARK   10  A    between atoms: CA_29  and  C_35 
REMARK   11  A    between atoms: CA_29  and  CB_30 
REMARK   12  A    between atoms: CB_30  and  CG_31 
REMARK   13  A    between atoms: CG_31  and  CD_32 
REMARK       I    between atoms: C_35  and  N_37 
REMARK   14  A    between atoms: N_37  and  CA_38 
REMARK   15  A    between atoms: CA_38  and  CB_39 
REMARK   16  A    between atoms: CA_38  and  C_47 
REMARK   17  A    between atoms: CB_39  and  CG_40 
REMARK       I    between atoms: C_47  and  N_49 
REMARK   18  A    between atoms: N_49  and  CA_50 
REMARK   19  A    between atoms: CA_50  and  CB_51 
REMARK   20  A    between atoms: CA_50  and  C_58 
REMARK   21  A    between atoms: CB_51  and  CG_52 
REMARK   22  A    between atoms: CG_52  and  CD_53 
REMARK   23  A    between atoms: CD_53  and  NE_54 
REMARK       I    between atoms: C_58  and  N_60 
REMARK   24  A    between atoms: N_60  and  CA_61 
REMARK   25  A    between atoms: CA_61  and  C_66 
REMARK   26  A    between atoms: CA_61  and  CB_62 
REMARK   27  A    between atoms: CB_62  and  CG_63 
REMARK       I    between atoms: C_66  and  N_68 
REMARK   28  A    between atoms: N_68  and  CA_69 
REMARK   29  A    between atoms: CA_69  and  CB_70 
REMARK   30  A    between atoms: CA_69  and  C_77 
REMARK   31  A    between atoms: CB_70  and  CG_71 
REMARK       I    between atoms: C_77  and  N_79 
REMARK   32  A    between atoms: N_79  and  CA_80 
REMARK   33  A    between atoms: CA_80  and  CB_81 
REMARK   34  A    between atoms: CA_80  and  C_91 
REMARK   35  A    between atoms: CB_81  and  CG_82 
REMARK       I    between atoms: C_91  and  N_93 
REMARK   36  A    between atoms: N_93  and  CA_94 
REMARK   37  A    between atoms: CA_94  and  C_95 
REMARK       I    between atoms: C_95  and  N_97 
REMARK   38  A    between atoms: N_97  and  CA_98 
REMARK   39  A    between atoms: CA_98  and  C_101 
REMARK   40  A    between atoms: CA_98  and  CB_99 
REMARK       I    between atoms: C_101  and  N_103 
REMARK   41  A    between atoms: N_103  and  CA_104 
REMARK   42  A    between atoms: CA_104  and  C_105 
ROOT
ATOM      1  CA  ARG     6      -2.673   8.848   5.117  1.00  0.00     0.186 C 
ENDROOT
BRANCH   1   2
ATOM      2  N   ARG     6      -3.321   9.674   4.071  1.00  0.00    -0.229 NA
ATOM      3  C   TYR     5      -2.627  10.259   3.086  1.00  0.00     0.275 C 
ATOM      4  O   TYR     5      -1.408  10.125   2.970  1.00  0.00    -0.268 OA
BRANCH   3   5
ATOM      5  CA  TYR     5      -3.430  11.027   2.024  1.00  0.00     0.191 C 
BRANCH   5   6
ATOM      6  N   TYR     5      -4.306  12.084   2.592  1.00  0.00    -0.228 NA
ATOM      7  C   GLU     4      -3.834  13.136   3.281  1.00  0.00     0.274 C 
ATOM      8  O   GLU     4      -2.638  13.381   3.375  1.00  0.00    -0.268 OA
BRANCH   7   9
ATOM      9  CA  GLU     4      -4.871  14.208   3.675  1.00  0.00     0.187 C 
BRANCH   9  10
ATOM     10  CB  GLU     4      -5.863  14.423   2.520  1.00  0.00     0.045 C 
BRANCH  10  11
ATOM     11  CG  GLU     4      -5.617  15.660   1.629  1.00  0.00     0.100 C 
BRANCH  11  12
ATOM     12  CD  GLU     4      -6.796  16.034   0.731  1.00  0.00     0.185 C 
ATOM     13  OE1 GLU     4      -7.847  15.350   0.844  1.00  0.00    -0.647 OA
ATOM     14  OE2 GLU     4      -6.525  16.626  -0.332  1.00  0.00    -0.647 OA
ENDBRANCH  11  12
ENDBRANCH  10  11
ENDBRANCH   9  10
BRANCH   9  15
ATOM     15  N   GLU     4      -4.263  15.507   4.021  1.00  0.00    -0.229 NA
ATOM     16  C   PRO     3      -4.458  16.238   5.112  1.00  0.00     0.272 C 
ATOM     17  O   PRO     3      -4.888  15.775   6.170  1.00  0.00    -0.269 OA
BRANCH  16  18
ATOM     18  CA  PRO     3      -3.671  17.550   5.168  1.00  0.00     0.165 C 
ATOM     19  N   PRO     3      -2.201  17.394   5.133  1.00  0.00    -0.312 N 
ATOM     20  CD  PRO     3      -1.608  18.450   4.273  1.00  0.00     0.105 C 
ATOM     21  C   ASP     2      -1.519  16.522   5.897  1.00  0.00     0.257 C 
ATOM     22  CG  PRO     3      -2.783  19.391   3.963  1.00  0.00     0.027 C 
ATOM     23  CB  PRO     3      -4.002  18.474   3.999  1.00  0.00     0.034 C 
ATOM     24  O   ASP     2      -2.080  15.942   6.839  1.00  0.00    -0.270 OA
BRANCH  21  25
ATOM     25  CA  ASP     2       0.026  16.506   5.839  1.00  0.00     0.195 C 
BRANCH  25  26
ATOM     26  CB  ASP     2       0.751  17.731   6.453  1.00  0.00     0.132 C 
BRANCH  26  27
ATOM     27  CG  ASP     2       1.227  17.413   7.883  1.00  0.00     0.188 C 
ATOM     28  OD2 ASP     2       2.252  16.690   7.964  1.00  0.00    -0.647 OA
ATOM     29  OD1 ASP     2       0.344  17.367   8.775  1.00  0.00    -0.647 OA
ENDBRANCH  26  27
ENDBRANCH  25  26
BRANCH  25  30
ATOM     30  N   ASP     2       0.528  16.500   4.455  1.00  0.00    -0.228 NA
ATOM     31  C   TYR     1       1.778  16.376   4.074  1.00  0.00     0.289 C 
ATOM     32  O   TYR     1       2.762  16.105   4.769  1.00  0.00    -0.268 OA
BRANCH  31  33
ATOM     33  CA  TYR     1       1.948  16.633   2.580  1.00  0.00     0.385 C 
ATOM     34  N   TYR     1       2.973  17.677   2.416  1.00  0.00     0.626 N 
BRANCH  33  35
ATOM     35  CB  TYR     1       2.352  15.310   1.933  1.00  0.00     0.075 C 
BRANCH  35  36
ATOM     36  CG  TYR     1       3.772  15.337   1.346  1.00  0.00    -0.019 A 
ATOM     37  CD2 TYR     1       4.824  14.687   1.972  1.00  0.00    -0.002 A 
ATOM     38  CE2 TYR     1       6.064  14.612   1.354  1.00  0.00     0.027 A 
ATOM     39  CZ  TYR     1       6.237  15.203   0.103  1.00  0.00     0.131 A 
ATOM     40  CE1 TYR     1       5.194  15.886  -0.497  1.00  0.00     0.027 A 
ATOM     41  OH  TYR     1       7.367  14.986  -0.599  1.00  0.00    -0.190 OA
ATOM     42  CD1 TYR     1       3.954  15.961   0.121  1.00  0.00    -0.002 A 
ENDBRANCH  35  36
ENDBRANCH  33  35
ENDBRANCH  31  33
ENDBRANCH  25  30
ENDBRANCH  21  25
ENDBRANCH  16  18
ENDBRANCH   9  15
ENDBRANCH   7   9
ENDBRANCH   5   6
BRANCH   5  43
ATOM     43  CB  TYR     5      -2.497  11.630   0.960  1.00  0.00     0.060 C 
BRANCH  43  44
ATOM     44  CG  TYR     5      -3.261  12.470  -0.078  1.00  0.00    -0.020 A 
ATOM     45  CD2 TYR     5      -4.244  11.891  -0.870  1.00  0.00    -0.002 A 
ATOM     46  CE2 TYR     5      -4.935  12.661  -1.801  1.00  0.00     0.027 A 
ATOM     47  CZ  TYR     5      -4.643  14.009  -1.939  1.00  0.00     0.131 A 
ATOM     48  CE1 TYR     5      -3.673  14.600  -1.137  1.00  0.00     0.027 A 
ATOM     49  OH  TYR     5      -5.208  14.730  -2.932  1.00  0.00    -0.190 OA
ATOM     50  CD1 TYR     5      -2.976  13.824  -0.211  1.00  0.00    -0.002 A 
ENDBRANCH  43  44
ENDBRANCH   5  43
ENDBRANCH   3   5
ENDBRANCH   1   2
BRANCH   1  51
ATOM     51  CB  ARG     6      -2.849   9.421   6.520  1.00  0.00     0.036 C 
BRANCH  51  52
ATOM     52  CG  ARG     6      -4.299   9.410   7.011  1.00  0.00     0.029 C 
BRANCH  52  53
ATOM     53  CD  ARG     6      -4.859  10.829   7.048  1.00  0.00     0.145 C 
BRANCH  53  54
ATOM     54  NE  ARG     6      -6.241  10.838   7.553  1.00  0.00    -0.083 NA
ATOM     55  CZ  ARG     6      -6.919  11.930   7.956  1.00  0.00     0.782 C 
ATOM     56  NH2 ARG     6      -8.142  11.815   8.477  1.00  0.00     0.063 N 
ATOM     57  NH1 ARG     6      -6.344  13.127   7.921  1.00  0.00     0.063 N 
ENDBRANCH  53  54
ENDBRANCH  52  53
ENDBRANCH  51  52
ENDBRANCH   1  51
BRANCH   1  58
ATOM     58  C   ARG     6      -3.221   7.415   5.156  1.00  0.00     0.274 C 
ATOM     59  N   ASN     7      -2.977   6.735   6.273  1.00  0.00    -0.228 NA
ATOM     60  O   ARG     6      -3.835   6.979   4.182  1.00  0.00    -0.268 OA
BRANCH  59  61
ATOM     61  CA  ASN     7      -3.507   5.381   6.534  1.00  0.00     0.196 C 
BRANCH  61  62
ATOM     62  C   ASN     7      -5.047   5.375   6.587  1.00  0.00     0.275 C 
ATOM     63  N   PHE     8      -5.671   4.334   6.016  1.00  0.00    -0.228 NA
ATOM     64  O   ASN     7      -5.575   6.063   7.440  1.00  0.00    -0.268 OA
BRANCH  63  65
ATOM     65  CA  PHE     8      -7.137   4.106   6.039  1.00  0.00     0.191 C 
BRANCH  65  66
ATOM     66  CB  PHE     8      -7.552   3.509   4.688  1.00  0.00     0.060 C 
BRANCH  66  67
ATOM     67  CG  PHE     8      -7.095   2.054   4.468  1.00  0.00    -0.020 A 
ATOM     68  CD1 PHE     8      -5.750   1.729   4.565  1.00  0.00    -0.004 A 
ATOM     69  CE1 PHE     8      -5.325   0.434   4.266  1.00  0.00    -0.000 A 
ATOM     70  CZ  PHE     8      -6.252  -0.524   3.889  1.00  0.00    -0.000 A 
ATOM     71  CE2 PHE     8      -7.603  -0.203   3.804  1.00  0.00    -0.000 A 
ATOM     72  CD2 PHE     8      -8.027   1.091   4.103  1.00  0.00    -0.004 A 
ENDBRANCH  66  67
ENDBRANCH  65  66
BRANCH  65  73
ATOM     73  C   PHE     8      -7.646   3.252   7.222  1.00  0.00     0.275 C 
ATOM     74  N   TRP     9      -8.968   3.096   7.316  1.00  0.00    -0.228 NA
ATOM     75  O   PHE     8      -6.898   2.953   8.156  1.00  0.00    -0.268 OA
BRANCH  74  76
ATOM     76  CA  TRP     9      -9.586   2.202   8.326  1.00  0.00     0.191 C 
BRANCH  76  77
ATOM     77  CB  TRP     9     -11.078   2.551   8.451  1.00  0.00     0.062 C 
BRANCH  77  78
ATOM     78  CG  TRP     9     -11.938   1.915   7.359  1.00  0.00     0.001 A 
ATOM     79  CD1 TRP     9     -11.911   2.222   6.066  1.00  0.00     0.095 A 
ATOM     80  NE1 TRP     9     -12.972   1.705   5.460  1.00  0.00    -0.244 NA
ATOM     81  CE2 TRP     9     -13.701   1.034   6.340  1.00  0.00     0.081 A 
ATOM     82  CD2 TRP     9     -13.082   1.154   7.574  1.00  0.00     0.015 A 
ATOM     83  CZ2 TRP     9     -14.934   0.388   6.251  1.00  0.00     0.019 A 
ATOM     84  CE3 TRP     9     -13.681   0.654   8.721  1.00  0.00     0.001 A 
ATOM     85  CZ3 TRP     9     -14.917   0.021   8.637  1.00  0.00     0.000 A 
ATOM     86  CH2 TRP     9     -15.530  -0.125   7.394  1.00  0.00     0.002 A 
ENDBRANCH  77  78
ENDBRANCH  76  77
BRANCH  76  87
ATOM     87  C   TRP     9      -9.373   0.694   8.064  1.00  0.00     0.275 C 
ATOM     88  O   TRP     9      -8.634   0.309   7.163  1.00  0.00    -0.268 OA
ATOM     89  N   GLY    10      -9.951  -0.140   8.927  1.00  0.00    -0.226 NA
BRANCH  89  90
ATOM     90  CA  GLY    10      -9.829  -1.623   8.870  1.00  0.00     0.218 C 
BRANCH  90  91
ATOM     91  C   GLY    10     -10.424  -2.309   7.630  1.00  0.00     0.277 C 
ATOM     92  N   CYS    11      -9.815  -3.436   7.263  1.00  0.00    -0.228 NA
ATOM     93  O   GLY    10     -11.277  -1.745   6.954  1.00  0.00    -0.268 OA
BRANCH  92  94
ATOM     94  CA  CYS    11     -10.187  -4.311   6.128  1.00  0.00     0.198 C 
BRANCH  94  95
ATOM     95  C   CYS    11      -9.666  -3.659   4.832  1.00  0.00     0.275 C 
ATOM     96  O   CYS    11      -8.476  -3.378   4.743  1.00  0.00    -0.268 OA
ATOM     97  N   GLY    12     -10.589  -3.263   3.968  1.00  0.00    -0.225 NA
BRANCH  97  98
ATOM     98  CA  GLY    12     -10.264  -2.610   2.691  1.00  0.00     0.226 C 
BRANCH  98  99
ATOM     99  C   GLY    12     -10.992  -1.246   2.653  1.00  0.00     0.211 C 
ATOM    100  O1  GLY    12     -11.341  -0.824   1.521  1.00  0.00    -0.646 OA
ATOM    101  O2  GLY    12     -11.215  -0.677   3.738  1.00  0.00    -0.646 OA
ENDBRANCH  98  99
ENDBRANCH  97  98
ENDBRANCH  94  95
BRANCH  94 102
ATOM    102  CB  CYS    11     -11.706  -4.363   5.981  1.00  0.00     0.103 C 
ATOM    103  SG  CYS    11     -12.435  -6.026   5.724  1.00  0.00    -0.080 SA
ENDBRANCH  94 102
ENDBRANCH  92  94
ENDBRANCH  90  91
ENDBRANCH  89  90
ENDBRANCH  76  87
ENDBRANCH  74  76
ENDBRANCH  65  73
ENDBRANCH  63  65
ENDBRANCH  61  62
BRANCH  61 104
ATOM    104  CB  ASN     7      -2.915   4.789   7.819  1.00  0.00     0.126 C 
BRANCH 104 105
ATOM    105  CG  ASN     7      -2.088   3.505   7.619  1.00  0.00     0.276 C 
ATOM    106  ND2 ASN     7      -2.721   2.374   7.830  1.00  0.00    -0.107 N 
ATOM    107  OD1 ASN     7      -0.878   3.469   7.437  1.00  0.00    -0.269 OA
ENDBRANCH 104 105
ENDBRANCH  61 104
ENDBRANCH  59  61
ENDBRANCH   1  58
TORSDOF 42
ENDMDL
