MODEL 1
REMARK VINA RESULT:      -4.2      0.000      0.000
REMARK WARNING: 32 MAX_TORS EXCEEDED!!!
REMARK  42 active torsions:
REMARK  status: ('A' for Active; 'I' for Inactive)
REMARK    1  A    between atoms: CA_2  and  CB_3 
REMARK    2  A    between atoms: CA_2  and  C_11 
REMARK    3  A    between atoms: CB_3  and  CG_4 
REMARK       I    between atoms: C_11  and  N_13 
REMARK    4  A    between atoms: N_13  and  CA_14 
REMARK    5  A    between atoms: CA_14  and  CB_15 
REMARK    6  A    between atoms: CA_14  and  C_19 
REMARK    7  A    between atoms: CB_15  and  CG_16 
REMARK       I    between atoms: C_19  and  N_21 
REMARK    8  A    between atoms: CA_22  and  C_26 
REMARK       I    between atoms: C_26  and  N_28 
REMARK    9  A    between atoms: N_28  and  CA_29 
REMARK   10  A    between atoms: CA_29  and  C_35 
REMARK   11  A    between atoms: CA_29  and  CB_30 
REMARK   12  A    between atoms: CB_30  and  CG_31 
REMARK   13  A    between atoms: CG_31  and  CD_32 
REMARK       I    between atoms: C_35  and  N_37 
REMARK   14  A    between atoms: N_37  and  CA_38 
REMARK   15  A    between atoms: CA_38  and  CB_39 
REMARK   16  A    between atoms: CA_38  and  C_47 
REMARK   17  A    between atoms: CB_39  and  CG_40 
REMARK       I    between atoms: C_47  and  N_49 
REMARK   18  A    between atoms: N_49  and  CA_50 
REMARK   19  A    between atoms: CA_50  and  CB_51 
REMARK   20  A    between atoms: CA_50  and  C_58 
REMARK   21  A    between atoms: CB_51  and  CG_52 
REMARK   22  A    between atoms: CG_52  and  CD_53 
REMARK   23  A    between atoms: CD_53  and  NE_54 
REMARK       I    between atoms: C_58  and  N_60 
REMARK   24  A    between atoms: N_60  and  CA_61 
REMARK   25  A    between atoms: CA_61  and  C_66 
REMARK   26  A    between atoms: CA_61  and  CB_62 
REMARK   27  A    between atoms: CB_62  and  CG_63 
REMARK       I    between atoms: C_66  and  N_68 
REMARK   28  A    between atoms: N_68  and  CA_69 
REMARK   29  A    between atoms: CA_69  and  CB_70 
REMARK   30  A    between atoms: CA_69  and  C_77 
REMARK   31  A    between atoms: CB_70  and  CG_71 
REMARK       I    between atoms: C_77  and  N_79 
REMARK   32  A    between atoms: N_79  and  CA_80 
REMARK   33  A    between atoms: CA_80  and  CB_81 
REMARK   34  A    between atoms: CA_80  and  C_91 
REMARK   35  A    between atoms: CB_81  and  CG_82 
REMARK       I    between atoms: C_91  and  N_93 
REMARK   36  A    between atoms: N_93  and  CA_94 
REMARK   37  A    between atoms: CA_94  and  C_95 
REMARK       I    between atoms: C_95  and  N_97 
REMARK   38  A    between atoms: N_97  and  CA_98 
REMARK   39  A    between atoms: CA_98  and  C_101 
REMARK   40  A    between atoms: CA_98  and  CB_99 
REMARK       I    between atoms: C_101  and  N_103 
REMARK   41  A    between atoms: N_103  and  CA_104 
REMARK   42  A    between atoms: CA_104  and  C_105 
ROOT
ATOM      1  CA  ARG     6      -4.009 -24.515   5.908  1.00  0.00     0.186 C 
ENDROOT
BRANCH   1   2
ATOM      2  N   ARG     6      -3.053 -23.453   6.297  1.00  0.00    -0.229 NA
ATOM      3  C   TYR     5      -3.376 -22.153   6.276  1.00  0.00     0.275 C 
ATOM      4  O   TYR     5      -4.498 -21.758   5.959  1.00  0.00    -0.268 OA
BRANCH   3   5
ATOM      5  CA  TYR     5      -2.314 -21.159   6.775  1.00  0.00     0.191 C 
BRANCH   5   6
ATOM      6  N   TYR     5      -2.868 -19.824   7.121  1.00  0.00    -0.228 NA
ATOM      7  C   GLU     4      -3.435 -19.551   8.308  1.00  0.00     0.274 C 
ATOM      8  O   GLU     4      -3.414 -20.336   9.247  1.00  0.00    -0.268 OA
BRANCH   7   9
ATOM      9  CA  GLU     4      -3.827 -18.078   8.547  1.00  0.00     0.187 C 
BRANCH   9  10
ATOM     10  CB  GLU     4      -2.965 -17.485   9.672  1.00  0.00     0.045 C 
BRANCH  10  11
ATOM     11  CG  GLU     4      -2.364 -16.087   9.408  1.00  0.00     0.100 C 
BRANCH  11  12
ATOM     12  CD  GLU     4      -1.127 -16.093   8.510  1.00  0.00     0.185 C 
ATOM     13  OE1 GLU     4      -0.386 -17.110   8.556  1.00  0.00    -0.647 OA
ATOM     14  OE2 GLU     4      -0.674 -14.981   8.172  1.00  0.00    -0.647 OA
ENDBRANCH  11  12
ENDBRANCH  10  11
ENDBRANCH   9  10
BRANCH   9  15
ATOM     15  N   GLU     4      -5.249 -17.905   8.902  1.00  0.00    -0.229 NA
ATOM     16  C   PRO     3      -6.310 -18.005   8.109  1.00  0.00     0.272 C 
ATOM     17  O   PRO     3      -6.301 -18.621   7.042  1.00  0.00    -0.269 OA
BRANCH  16  18
ATOM     18  CA  PRO     3      -7.659 -17.763   8.790  1.00  0.00     0.165 C 
ATOM     19  N   PRO     3      -8.517 -16.757   8.130  1.00  0.00    -0.312 N 
ATOM     20  CD  PRO     3      -9.929 -17.218   8.144  1.00  0.00     0.105 C 
ATOM     21  C   ASP     2      -8.084 -15.547   7.729  1.00  0.00     0.257 C 
ATOM     22  CG  PRO     3      -9.912 -18.462   9.045  1.00  0.00     0.027 C 
ATOM     23  CB  PRO     3      -8.509 -19.030   8.856  1.00  0.00     0.034 C 
ATOM     24  O   ASP     2      -6.975 -15.128   8.091  1.00  0.00    -0.270 OA
BRANCH  21  25
ATOM     25  CA  ASP     2      -9.091 -14.541   7.127  1.00  0.00     0.195 C 
BRANCH  25  26
ATOM     26  CB  ASP     2      -9.379 -14.678   5.610  1.00  0.00     0.132 C 
BRANCH  26  27
ATOM     27  CG  ASP     2     -10.870 -14.980   5.371  1.00  0.00     0.188 C 
ATOM     28  OD2 ASP     2     -11.659 -14.538   6.244  1.00  0.00    -0.647 OA
ATOM     29  OD1 ASP     2     -11.139 -16.037   4.748  1.00  0.00    -0.647 OA
ENDBRANCH  26  27
ENDBRANCH  25  26
BRANCH  25  30
ATOM     30  N   ASP     2      -8.616 -13.151   7.236  1.00  0.00    -0.228 NA
ATOM     31  C   TYR     1      -7.703 -12.573   6.491  1.00  0.00     0.289 C 
ATOM     32  O   TYR     1      -7.157 -13.016   5.476  1.00  0.00    -0.268 OA
BRANCH  31  33
ATOM     33  CA  TYR     1      -7.312 -11.200   7.029  1.00  0.00     0.385 C 
ATOM     34  N   TYR     1      -6.123 -11.371   7.881  1.00  0.00     0.626 N 
BRANCH  33  35
ATOM     35  CB  TYR     1      -7.044 -10.299   5.826  1.00  0.00     0.075 C 
BRANCH  35  36
ATOM     36  CG  TYR     1      -7.978  -9.080   5.769  1.00  0.00    -0.019 A 
ATOM     37  CD2 TYR     1      -9.350  -9.213   5.916  1.00  0.00    -0.002 A 
ATOM     38  CE2 TYR     1     -10.155  -8.087   5.996  1.00  0.00     0.027 A 
ATOM     39  CZ  TYR     1      -9.568  -6.824   5.919  1.00  0.00     0.131 A 
ATOM     40  CE1 TYR     1      -8.204  -6.699   5.731  1.00  0.00     0.027 A 
ATOM     41  OH  TYR     1     -10.297  -5.721   6.180  1.00  0.00    -0.190 OA
ATOM     42  CD1 TYR     1      -7.398  -7.826   5.651  1.00  0.00    -0.002 A 
ENDBRANCH  35  36
ENDBRANCH  33  35
ENDBRANCH  31  33
ENDBRANCH  25  30
ENDBRANCH  21  25
ENDBRANCH  16  18
ENDBRANCH   9  15
ENDBRANCH   7   9
ENDBRANCH   5   6
BRANCH   5  43
ATOM     43  CB  TYR     5      -1.541 -21.736   7.972  1.00  0.00     0.060 C 
BRANCH  43  44
ATOM     44  CG  TYR     5      -0.038 -21.416   7.906  1.00  0.00    -0.020 A 
ATOM     45  CD2 TYR     5       0.774 -22.030   6.962  1.00  0.00    -0.002 A 
ATOM     46  CE2 TYR     5       2.132 -21.728   6.905  1.00  0.00     0.027 A 
ATOM     47  CZ  TYR     5       2.676 -20.813   7.792  1.00  0.00     0.131 A 
ATOM     48  CE1 TYR     5       1.866 -20.181   8.729  1.00  0.00     0.027 A 
ATOM     49  OH  TYR     5       4.012 -20.619   7.835  1.00  0.00    -0.190 OA
ATOM     50  CD1 TYR     5       0.508 -20.492   8.790  1.00  0.00    -0.002 A 
ENDBRANCH  43  44
ENDBRANCH   5  43
ENDBRANCH   3   5
ENDBRANCH   1   2
BRANCH   1  51
ATOM     51  CB  ARG     6      -3.337 -25.691   5.206  1.00  0.00     0.036 C 
BRANCH  51  52
ATOM     52  CG  ARG     6      -2.108 -25.295   4.384  1.00  0.00     0.029 C 
BRANCH  52  53
ATOM     53  CD  ARG     6      -1.209 -26.507   4.155  1.00  0.00     0.145 C 
BRANCH  53  54
ATOM     54  NE  ARG     6      -2.008 -27.707   3.854  1.00  0.00    -0.083 NA
ATOM     55  CZ  ARG     6      -1.511 -28.911   3.513  1.00  0.00     0.782 C 
ATOM     56  NH2 ARG     6      -2.328 -29.911   3.178  1.00  0.00     0.063 N 
ATOM     57  NH1 ARG     6      -0.198 -29.094   3.423  1.00  0.00     0.063 N 
ENDBRANCH  53  54
ENDBRANCH  52  53
ENDBRANCH  51  52
ENDBRANCH   1  51
BRANCH   1  58
ATOM     58  C   ARG     6      -4.763 -25.095   7.111  1.00  0.00     0.274 C 
ATOM     59  N   ASN     7      -6.078 -24.897   7.119  1.00  0.00    -0.228 NA
ATOM     60  O   ARG     6      -4.133 -25.693   7.985  1.00  0.00    -0.268 OA
BRANCH  59  61
ATOM     61  CA  ASN     7      -6.982 -25.463   8.141  1.00  0.00     0.196 C 
BRANCH  61  62
ATOM     62  C   ASN     7      -8.303 -25.958   7.519  1.00  0.00     0.275 C 
ATOM     63  N   PHE     8      -8.475 -25.740   6.207  1.00  0.00    -0.228 NA
ATOM     64  O   ASN     7      -8.909 -26.823   8.121  1.00  0.00    -0.268 OA
BRANCH  63  65
ATOM     65  CA  PHE     8      -9.634 -26.215   5.413  1.00  0.00     0.191 C 
BRANCH  65  66
ATOM     66  CB  PHE     8     -10.024 -25.110   4.421  1.00  0.00     0.060 C 
BRANCH  66  67
ATOM     67  CG  PHE     8      -8.839 -24.269   3.909  1.00  0.00    -0.020 A 
ATOM     68  CD1 PHE     8      -8.793 -22.907   4.172  1.00  0.00    -0.004 A 
ATOM     69  CE1 PHE     8      -7.774 -22.128   3.621  1.00  0.00    -0.000 A 
ATOM     70  CZ  PHE     8      -6.806 -22.723   2.828  1.00  0.00    -0.000 A 
ATOM     71  CE2 PHE     8      -6.844 -24.090   2.575  1.00  0.00    -0.000 A 
ATOM     72  CD2 PHE     8      -7.862 -24.869   3.125  1.00  0.00    -0.004 A 
ENDBRANCH  66  67
ENDBRANCH  65  66
BRANCH  65  73
ATOM     73  C   PHE     8      -9.427 -27.572   4.703  1.00  0.00     0.275 C 
ATOM     74  N   TRP     9      -8.242 -28.160   4.879  1.00  0.00    -0.228 NA
ATOM     75  O   PHE     8     -10.209 -27.956   3.830  1.00  0.00    -0.268 OA
BRANCH  74  76
ATOM     76  CA  TRP     9      -7.952 -29.519   4.359  1.00  0.00     0.191 C 
BRANCH  76  77
ATOM     77  CB  TRP     9      -6.469 -29.590   3.958  1.00  0.00     0.062 C 
BRANCH  77  78
ATOM     78  CG  TRP     9      -5.527 -29.697   5.156  1.00  0.00     0.001 A 
ATOM     79  CD1 TRP     9      -5.021 -28.679   5.846  1.00  0.00     0.095 A 
ATOM     80  NE1 TRP     9      -4.027 -29.107   6.614  1.00  0.00    -0.244 NA
ATOM     81  CE2 TRP     9      -3.877 -30.414   6.456  1.00  0.00     0.081 A 
ATOM     82  CD2 TRP     9      -4.809 -30.832   5.519  1.00  0.00     0.015 A 
ATOM     83  CZ2 TRP     9      -2.943 -31.325   6.948  1.00  0.00     0.019 A 
ATOM     84  CE3 TRP     9      -4.813 -32.140   5.056  1.00  0.00     0.001 A 
ATOM     85  CZ3 TRP     9      -3.873 -33.047   5.535  1.00  0.00     0.000 A 
ATOM     86  CH2 TRP     9      -2.952 -32.637   6.497  1.00  0.00     0.002 A 
ENDBRANCH  77  78
ENDBRANCH  76  77
BRANCH  76  87
ATOM     87  C   TRP     9      -8.339 -30.668   5.316  1.00  0.00     0.275 C 
ATOM     88  O   TRP     9      -8.603 -30.445   6.494  1.00  0.00    -0.268 OA
ATOM     89  N   GLY    10      -8.465 -31.875   4.766  1.00  0.00    -0.226 NA
BRANCH  89  90
ATOM     90  CA  GLY    10      -8.871 -33.098   5.511  1.00  0.00     0.218 C 
BRANCH  90  91
ATOM     91  C   GLY    10      -9.550 -34.205   4.688  1.00  0.00     0.277 C 
ATOM     92  N   CYS    11      -8.865 -35.344   4.603  1.00  0.00    -0.228 NA
ATOM     93  O   GLY    10     -10.556 -33.964   4.030  1.00  0.00    -0.268 OA
BRANCH  92  94
ATOM     94  CA  CYS    11      -9.286 -36.576   3.899  1.00  0.00     0.198 C 
BRANCH  94  95
ATOM     95  C   CYS    11      -8.915 -37.783   4.782  1.00  0.00     0.275 C 
ATOM     96  O   CYS    11      -8.623 -38.846   4.246  1.00  0.00    -0.268 OA
ATOM     97  N   GLY    12      -9.131 -37.641   6.082  1.00  0.00    -0.225 NA
BRANCH  97  98
ATOM     98  CA  GLY    12      -8.847 -38.701   7.062  1.00  0.00     0.226 C 
BRANCH  98  99
ATOM     99  C   GLY    12     -10.046 -39.678   7.070  1.00  0.00     0.211 C 
ATOM    100  O1  GLY    12      -9.804 -40.870   6.753  1.00  0.00    -0.646 OA
ATOM    101  O2  GLY    12     -11.154 -39.233   7.421  1.00  0.00    -0.646 OA
ENDBRANCH  98  99
ENDBRANCH  97  98
ENDBRANCH  94  95
BRANCH  94 102
ATOM    102  CB  CYS    11      -8.483 -36.746   2.611  1.00  0.00     0.103 C 
ATOM    103  SG  CYS    11      -6.859 -35.894   2.553  1.00  0.00    -0.080 SA
ENDBRANCH  94 102
ENDBRANCH  92  94
ENDBRANCH  90  91
ENDBRANCH  89  90
ENDBRANCH  76  87
ENDBRANCH  74  76
ENDBRANCH  65  73
ENDBRANCH  63  65
ENDBRANCH  61  62
BRANCH  61 104
ATOM    104  CB  ASN     7      -7.253 -24.455   9.265  1.00  0.00     0.126 C 
BRANCH 104 105
ATOM    105  CG  ASN     7      -7.067 -22.979   8.869  1.00  0.00     0.276 C 
ATOM    106  ND2 ASN     7      -6.144 -22.317   9.529  1.00  0.00    -0.107 N 
ATOM    107  OD1 ASN     7      -7.803 -22.355   8.115  1.00  0.00    -0.269 OA
ENDBRANCH 104 105
ENDBRANCH  61 104
ENDBRANCH  59  61
ENDBRANCH   1  58
TORSDOF 42
ENDMDL
MODEL 2
REMARK VINA RESULT:      -3.8     20.433     27.796
REMARK WARNING: 32 MAX_TORS EXCEEDED!!!
REMARK  42 active torsions:
REMARK  status: ('A' for Active; 'I' for Inactive)
REMARK    1  A    between atoms: CA_2  and  CB_3 
REMARK    2  A    between atoms: CA_2  and  C_11 
REMARK    3  A    between atoms: CB_3  and  CG_4 
REMARK       I    between atoms: C_11  and  N_13 
REMARK    4  A    between atoms: N_13  and  CA_14 
REMARK    5  A    between atoms: CA_14  and  CB_15 
REMARK    6  A    between atoms: CA_14  and  C_19 
REMARK    7  A    between atoms: CB_15  and  CG_16 
REMARK       I    between atoms: C_19  and  N_21 
REMARK    8  A    between atoms: CA_22  and  C_26 
REMARK       I    between atoms: C_26  and  N_28 
REMARK    9  A    between atoms: N_28  and  CA_29 
REMARK   10  A    between atoms: CA_29  and  C_35 
REMARK   11  A    between atoms: CA_29  and  CB_30 
REMARK   12  A    between atoms: CB_30  and  CG_31 
REMARK   13  A    between atoms: CG_31  and  CD_32 
REMARK       I    between atoms: C_35  and  N_37 
REMARK   14  A    between atoms: N_37  and  CA_38 
REMARK   15  A    between atoms: CA_38  and  CB_39 
REMARK   16  A    between atoms: CA_38  and  C_47 
REMARK   17  A    between atoms: CB_39  and  CG_40 
REMARK       I    between atoms: C_47  and  N_49 
REMARK   18  A    between atoms: N_49  and  CA_50 
REMARK   19  A    between atoms: CA_50  and  CB_51 
REMARK   20  A    between atoms: CA_50  and  C_58 
REMARK   21  A    between atoms: CB_51  and  CG_52 
REMARK   22  A    between atoms: CG_52  and  CD_53 
REMARK   23  A    between atoms: CD_53  and  NE_54 
REMARK       I    between atoms: C_58  and  N_60 
REMARK   24  A    between atoms: N_60  and  CA_61 
REMARK   25  A    between atoms: CA_61  and  C_66 
REMARK   26  A    between atoms: CA_61  and  CB_62 
REMARK   27  A    between atoms: CB_62  and  CG_63 
REMARK       I    between atoms: C_66  and  N_68 
REMARK   28  A    between atoms: N_68  and  CA_69 
REMARK   29  A    between atoms: CA_69  and  CB_70 
REMARK   30  A    between atoms: CA_69  and  C_77 
REMARK   31  A    between atoms: CB_70  and  CG_71 
REMARK       I    between atoms: C_77  and  N_79 
REMARK   32  A    between atoms: N_79  and  CA_80 
REMARK   33  A    between atoms: CA_80  and  CB_81 
REMARK   34  A    between atoms: CA_80  and  C_91 
REMARK   35  A    between atoms: CB_81  and  CG_82 
REMARK       I    between atoms: C_91  and  N_93 
REMARK   36  A    between atoms: N_93  and  CA_94 
REMARK   37  A    between atoms: CA_94  and  C_95 
REMARK       I    between atoms: C_95  and  N_97 
REMARK   38  A    between atoms: N_97  and  CA_98 
REMARK   39  A    between atoms: CA_98  and  C_101 
REMARK   40  A    between atoms: CA_98  and  CB_99 
REMARK       I    between atoms: C_101  and  N_103 
REMARK   41  A    between atoms: N_103  and  CA_104 
REMARK   42  A    between atoms: CA_104  and  C_105 
ROOT
ATOM      1  CA  ARG     6      17.397  -5.824   5.339  1.00  0.00     0.186 C 
ENDROOT
BRANCH   1   2
ATOM      2  N   ARG     6      16.421  -4.772   5.707  1.00  0.00    -0.229 NA
ATOM      3  C   TYR     5      15.737  -4.075   4.791  1.00  0.00     0.275 C 
ATOM      4  O   TYR     5      15.853  -4.283   3.583  1.00  0.00    -0.268 OA
BRANCH   3   5
ATOM      5  CA  TYR     5      14.701  -3.064   5.309  1.00  0.00     0.191 C 
BRANCH   5   6
ATOM      6  N   TYR     5      15.239  -2.140   6.340  1.00  0.00    -0.228 NA
ATOM      7  C   GLU     4      16.039  -1.101   6.049  1.00  0.00     0.274 C 
ATOM      8  O   GLU     4      16.274  -0.750   4.900  1.00  0.00    -0.268 OA
BRANCH   7   9
ATOM      9  CA  GLU     4      16.388  -0.165   7.225  1.00  0.00     0.187 C 
BRANCH   9  10
ATOM     10  CB  GLU     4      17.123  -0.955   8.320  1.00  0.00     0.045 C 
BRANCH  10  11
ATOM     11  CG  GLU     4      18.598  -1.310   8.032  1.00  0.00     0.100 C 
BRANCH  11  12
ATOM     12  CD  GLU     4      19.598  -0.232   8.448  1.00  0.00     0.185 C 
ATOM     13  OE1 GLU     4      20.446  -0.538   9.327  1.00  0.00    -0.647 OA
ATOM     14  OE2 GLU     4      19.248   0.953   8.277  1.00  0.00    -0.647 OA
ENDBRANCH  11  12
ENDBRANCH  10  11
ENDBRANCH   9  10
BRANCH   9  15
ATOM     15  N   GLU     4      15.205   0.482   7.825  1.00  0.00    -0.229 NA
ATOM     16  C   PRO     3      15.167   1.355   8.825  1.00  0.00     0.272 C 
ATOM     17  O   PRO     3      16.134   2.040   9.162  1.00  0.00    -0.269 OA
BRANCH  16  18
ATOM     18  CA  PRO     3      13.769   1.840   9.215  1.00  0.00     0.165 C 
ATOM     19  N   PRO     3      13.058   2.597   8.162  1.00  0.00    -0.312 N 
ATOM     20  CD  PRO     3      11.626   2.202   8.145  1.00  0.00     0.105 C 
ATOM     21  C   ASP     2      13.610   3.597   7.452  1.00  0.00     0.257 C 
ATOM     22  CG  PRO     3      11.460   1.322   9.393  1.00  0.00     0.027 C 
ATOM     23  CB  PRO     3      12.836   0.687   9.576  1.00  0.00     0.034 C 
ATOM     24  O   ASP     2      14.698   4.084   7.797  1.00  0.00    -0.270 OA
BRANCH  21  25
ATOM     25  CA  ASP     2      12.745   4.376   6.436  1.00  0.00     0.195 C 
BRANCH  25  26
ATOM     26  CB  ASP     2      13.127   4.217   4.941  1.00  0.00     0.132 C 
BRANCH  26  27
ATOM     27  CG  ASP     2      12.910   2.763   4.483  1.00  0.00     0.188 C 
ATOM     28  OD2 ASP     2      13.947   2.054   4.422  1.00  0.00    -0.647 OA
ATOM     29  OD1 ASP     2      11.951   2.555   3.698  1.00  0.00    -0.647 OA
ENDBRANCH  26  27
ENDBRANCH  25  26
BRANCH  25  30
ATOM     30  N   ASP     2      12.836   5.833   6.633  1.00  0.00    -0.228 NA
ATOM     31  C   TYR     1      11.871   6.633   7.023  1.00  0.00     0.289 C 
ATOM     32  O   TYR     1      10.745   6.326   7.430  1.00  0.00    -0.268 OA
BRANCH  31  33
ATOM     33  CA  TYR     1      12.265   8.102   6.907  1.00  0.00     0.385 C 
ATOM     34  N   TYR     1      13.736   8.175   6.899  1.00  0.00     0.626 N 
BRANCH  33  35
ATOM     35  CB  TYR     1      11.647   8.639   5.618  1.00  0.00     0.075 C 
BRANCH  35  36
ATOM     36  CG  TYR     1      11.027  10.035   5.785  1.00  0.00    -0.019 A 
ATOM     37  CD2 TYR     1      10.203  10.337   6.859  1.00  0.00    -0.002 A 
ATOM     38  CE2 TYR     1       9.768  11.638   7.060  1.00  0.00     0.027 A 
ATOM     39  CZ  TYR     1      10.164  12.633   6.167  1.00  0.00     0.131 A 
ATOM     40  CE1 TYR     1      10.953  12.318   5.076  1.00  0.00     0.027 A 
ATOM     41  OH  TYR     1       9.912  13.929   6.442  1.00  0.00    -0.190 OA
ATOM     42  CD1 TYR     1      11.388  11.017   4.875  1.00  0.00    -0.002 A 
ENDBRANCH  35  36
ENDBRANCH  33  35
ENDBRANCH  31  33
ENDBRANCH  25  30
ENDBRANCH  21  25
ENDBRANCH  16  18
ENDBRANCH   9  15
ENDBRANCH   7   9
ENDBRANCH   5   6
BRANCH   5  43
ATOM     43  CB  TYR     5      14.089  -2.261   4.149  1.00  0.00     0.060 C 
BRANCH  43  44
ATOM     44  CG  TYR     5      12.631  -1.856   4.424  1.00  0.00    -0.020 A 
ATOM     45  CD2 TYR     5      12.340  -0.785   5.259  1.00  0.00    -0.002 A 
ATOM     46  CE2 TYR     5      11.018  -0.422   5.496  1.00  0.00     0.027 A 
ATOM     47  CZ  TYR     5       9.986  -1.130   4.899  1.00  0.00     0.131 A 
ATOM     48  CE1 TYR     5      10.269  -2.193   4.048  1.00  0.00     0.027 A 
ATOM     49  OH  TYR     5       8.703  -0.874   5.233  1.00  0.00    -0.190 OA
ATOM     50  CD1 TYR     5      11.596  -2.560   3.819  1.00  0.00    -0.002 A 
ENDBRANCH  43  44
ENDBRANCH   5  43
ENDBRANCH   3   5
ENDBRANCH   1   2
BRANCH   1  51
ATOM     51  CB  ARG     6      18.806  -5.278   5.125  1.00  0.00     0.036 C 
BRANCH  51  52
ATOM     52  CG  ARG     6      19.220  -5.207   3.653  1.00  0.00     0.029 C 
BRANCH  52  53
ATOM     53  CD  ARG     6      20.348  -6.194   3.371  1.00  0.00     0.145 C 
BRANCH  53  54
ATOM     54  NE  ARG     6      20.529  -7.125   4.497  1.00  0.00    -0.083 NA
ATOM     55  CZ  ARG     6      20.339  -8.457   4.448  1.00  0.00     0.782 C 
ATOM     56  NH2 ARG     6      20.450  -9.199   5.552  1.00  0.00     0.063 N 
ATOM     57  NH1 ARG     6      19.953  -9.039   3.317  1.00  0.00     0.063 N 
ENDBRANCH  53  54
ENDBRANCH  52  53
ENDBRANCH  51  52
ENDBRANCH   1  51
BRANCH   1  58
ATOM     58  C   ARG     6      17.509  -6.920   6.405  1.00  0.00     0.274 C 
ATOM     59  N   ASN     7      16.555  -7.847   6.382  1.00  0.00    -0.228 NA
ATOM     60  O   ARG     6      18.443  -6.887   7.207  1.00  0.00    -0.268 OA
BRANCH  59  61
ATOM     61  CA  ASN     7      16.548  -9.031   7.265  1.00  0.00     0.196 C 
BRANCH  61  62
ATOM     62  C   ASN     7      16.809 -10.329   6.476  1.00  0.00     0.275 C 
ATOM     63  N   PHE     8      16.261 -11.454   6.959  1.00  0.00    -0.228 NA
ATOM     64  O   ASN     7      17.138 -10.212   5.311  1.00  0.00    -0.268 OA
BRANCH  63  65
ATOM     65  CA  PHE     8      16.326 -12.781   6.298  1.00  0.00     0.191 C 
BRANCH  65  66
ATOM     66  CB  PHE     8      17.321 -13.656   7.073  1.00  0.00     0.060 C 
BRANCH  66  67
ATOM     67  CG  PHE     8      18.768 -13.591   6.549  1.00  0.00    -0.020 A 
ATOM     68  CD1 PHE     8      19.006 -13.422   5.192  1.00  0.00    -0.004 A 
ATOM     69  CE1 PHE     8      20.312 -13.467   4.705  1.00  0.00    -0.000 A 
ATOM     70  CZ  PHE     8      21.367 -13.664   5.582  1.00  0.00    -0.000 A 
ATOM     71  CE2 PHE     8      21.131 -13.820   6.944  1.00  0.00    -0.000 A 
ATOM     72  CD2 PHE     8      19.825 -13.776   7.431  1.00  0.00    -0.004 A 
ENDBRANCH  66  67
ENDBRANCH  65  66
BRANCH  65  73
ATOM     73  C   PHE     8      14.964 -13.488   6.118  1.00  0.00     0.275 C 
ATOM     74  N   TRP     9      14.988 -14.680   5.520  1.00  0.00    -0.228 NA
ATOM     75  O   PHE     8      13.906 -12.876   6.283  1.00  0.00    -0.268 OA
BRANCH  74  76
ATOM     76  CA  TRP     9      13.774 -15.523   5.394  1.00  0.00     0.191 C 
BRANCH  76  77
ATOM     77  CB  TRP     9      13.519 -15.804   3.904  1.00  0.00     0.062 C 
BRANCH  77  78
ATOM     78  CG  TRP     9      12.263 -15.118   3.368  1.00  0.00     0.001 A 
ATOM     79  CD1 TRP     9      12.074 -13.806   3.263  1.00  0.00     0.095 A 
ATOM     80  NE1 TRP     9      10.790 -13.554   3.045  1.00  0.00    -0.244 NA
ATOM     81  CE2 TRP     9      10.119 -14.694   2.984  1.00  0.00     0.081 A 
ATOM     82  CD2 TRP     9      11.022 -15.723   3.199  1.00  0.00     0.015 A 
ATOM     83  CZ2 TRP     9       8.760 -14.988   2.866  1.00  0.00     0.019 A 
ATOM     84  CE3 TRP     9      10.589 -17.036   3.313  1.00  0.00     0.001 A 
ATOM     85  CZ3 TRP     9       9.233 -17.330   3.208  1.00  0.00     0.000 A 
ATOM     86  CH2 TRP     9       8.325 -16.301   2.966  1.00  0.00     0.002 A 
ENDBRANCH  77  78
ENDBRANCH  76  77
BRANCH  76  87
ATOM     87  C   TRP     9      13.808 -16.827   6.222  1.00  0.00     0.275 C 
ATOM     88  O   TRP     9      13.339 -17.869   5.776  1.00  0.00    -0.268 OA
ATOM     89  N   GLY    10      14.457 -16.768   7.384  1.00  0.00    -0.226 NA
BRANCH  89  90
ATOM     90  CA  GLY    10      14.637 -17.926   8.303  1.00  0.00     0.218 C 
BRANCH  90  91
ATOM     91  C   GLY    10      16.044 -18.543   8.355  1.00  0.00     0.277 C 
ATOM     92  N   CYS    11      16.152 -19.749   7.800  1.00  0.00    -0.228 NA
ATOM     93  O   GLY    10      16.931 -18.017   9.018  1.00  0.00    -0.268 OA
BRANCH  92  94
ATOM     94  CA  CYS    11      17.383 -20.562   7.688  1.00  0.00     0.198 C 
BRANCH  94  95
ATOM     95  C   CYS    11      18.187 -20.049   6.478  1.00  0.00     0.275 C 
ATOM     96  O   CYS    11      19.288 -19.543   6.665  1.00  0.00    -0.268 OA
ATOM     97  N   GLY    12      17.539 -20.010   5.323  1.00  0.00    -0.225 NA
BRANCH  97  98
ATOM     98  CA  GLY    12      18.153 -19.532   4.074  1.00  0.00     0.226 C 
BRANCH  98  99
ATOM     99  C   GLY    12      17.419 -18.241   3.644  1.00  0.00     0.211 C 
ATOM    100  O1  GLY    12      16.584 -17.770   4.457  1.00  0.00    -0.646 OA
ATOM    101  O2  GLY    12      17.725 -17.738   2.548  1.00  0.00    -0.646 OA
ENDBRANCH  98  99
ENDBRANCH  97  98
ENDBRANCH  94  95
BRANCH  94 102
ATOM    102  CB  CYS    11      17.029 -22.011   7.363  1.00  0.00     0.103 C 
ATOM    103  SG  CYS    11      18.384 -23.234   7.541  1.00  0.00    -0.080 SA
ENDBRANCH  94 102
ENDBRANCH  92  94
ENDBRANCH  90  91
ENDBRANCH  89  90
ENDBRANCH  76  87
ENDBRANCH  74  76
ENDBRANCH  65  73
ENDBRANCH  63  65
ENDBRANCH  61  62
BRANCH  61 104
ATOM    104  CB  ASN     7      15.238  -9.128   8.057  1.00  0.00     0.126 C 
BRANCH 104 105
ATOM    105  CG  ASN     7      13.959  -8.963   7.214  1.00  0.00     0.276 C 
ATOM    106  ND2 ASN     7      14.121  -8.983   5.911  1.00  0.00    -0.107 N 
ATOM    107  OD1 ASN     7      12.858  -8.665   7.659  1.00  0.00    -0.269 OA
ENDBRANCH 104 105
ENDBRANCH  61 104
ENDBRANCH  59  61
ENDBRANCH   1  58
TORSDOF 42
ENDMDL
MODEL 3
REMARK VINA RESULT:      -3.8     20.198     27.418
REMARK WARNING: 32 MAX_TORS EXCEEDED!!!
REMARK  42 active torsions:
REMARK  status: ('A' for Active; 'I' for Inactive)
REMARK    1  A    between atoms: CA_2  and  CB_3 
REMARK    2  A    between atoms: CA_2  and  C_11 
REMARK    3  A    between atoms: CB_3  and  CG_4 
REMARK       I    between atoms: C_11  and  N_13 
REMARK    4  A    between atoms: N_13  and  CA_14 
REMARK    5  A    between atoms: CA_14  and  CB_15 
REMARK    6  A    between atoms: CA_14  and  C_19 
REMARK    7  A    between atoms: CB_15  and  CG_16 
REMARK       I    between atoms: C_19  and  N_21 
REMARK    8  A    between atoms: CA_22  and  C_26 
REMARK       I    between atoms: C_26  and  N_28 
REMARK    9  A    between atoms: N_28  and  CA_29 
REMARK   10  A    between atoms: CA_29  and  C_35 
REMARK   11  A    between atoms: CA_29  and  CB_30 
REMARK   12  A    between atoms: CB_30  and  CG_31 
REMARK   13  A    between atoms: CG_31  and  CD_32 
REMARK       I    between atoms: C_35  and  N_37 
REMARK   14  A    between atoms: N_37  and  CA_38 
REMARK   15  A    between atoms: CA_38  and  CB_39 
REMARK   16  A    between atoms: CA_38  and  C_47 
REMARK   17  A    between atoms: CB_39  and  CG_40 
REMARK       I    between atoms: C_47  and  N_49 
REMARK   18  A    between atoms: N_49  and  CA_50 
REMARK   19  A    between atoms: CA_50  and  CB_51 
REMARK   20  A    between atoms: CA_50  and  C_58 
REMARK   21  A    between atoms: CB_51  and  CG_52 
REMARK   22  A    between atoms: CG_52  and  CD_53 
REMARK   23  A    between atoms: CD_53  and  NE_54 
REMARK       I    between atoms: C_58  and  N_60 
REMARK   24  A    between atoms: N_60  and  CA_61 
REMARK   25  A    between atoms: CA_61  and  C_66 
REMARK   26  A    between atoms: CA_61  and  CB_62 
REMARK   27  A    between atoms: CB_62  and  CG_63 
REMARK       I    between atoms: C_66  and  N_68 
REMARK   28  A    between atoms: N_68  and  CA_69 
REMARK   29  A    between atoms: CA_69  and  CB_70 
REMARK   30  A    between atoms: CA_69  and  C_77 
REMARK   31  A    between atoms: CB_70  and  CG_71 
REMARK       I    between atoms: C_77  and  N_79 
REMARK   32  A    between atoms: N_79  and  CA_80 
REMARK   33  A    between atoms: CA_80  and  CB_81 
REMARK   34  A    between atoms: CA_80  and  C_91 
REMARK   35  A    between atoms: CB_81  and  CG_82 
REMARK       I    between atoms: C_91  and  N_93 
REMARK   36  A    between atoms: N_93  and  CA_94 
REMARK   37  A    between atoms: CA_94  and  C_95 
REMARK       I    between atoms: C_95  and  N_97 
REMARK   38  A    between atoms: N_97  and  CA_98 
REMARK   39  A    between atoms: CA_98  and  C_101 
REMARK   40  A    between atoms: CA_98  and  CB_99 
REMARK       I    between atoms: C_101  and  N_103 
REMARK   41  A    between atoms: N_103  and  CA_104 
REMARK   42  A    between atoms: CA_104  and  C_105 
ROOT
ATOM      1  CA  ARG     6      17.459  -5.661   5.940  1.00  0.00     0.186 C 
ENDROOT
BRANCH   1   2
ATOM      2  N   ARG     6      16.364  -4.676   6.100  1.00  0.00    -0.229 NA
ATOM      3  C   TYR     5      15.938  -3.906   5.090  1.00  0.00     0.275 C 
ATOM      4  O   TYR     5      16.410  -3.988   3.955  1.00  0.00    -0.268 OA
BRANCH   3   5
ATOM      5  CA  TYR     5      14.745  -2.979   5.370  1.00  0.00     0.191 C 
BRANCH   5   6
ATOM      6  N   TYR     5      14.963  -2.063   6.520  1.00  0.00    -0.228 NA
ATOM      7  C   GLU     4      15.848  -1.053   6.495  1.00  0.00     0.274 C 
ATOM      8  O   GLU     4      16.442  -0.720   5.478  1.00  0.00    -0.268 OA
BRANCH   7   9
ATOM      9  CA  GLU     4      15.842  -0.118   7.722  1.00  0.00     0.187 C 
BRANCH   9  10
ATOM     10  CB  GLU     4      16.201  -0.914   8.987  1.00  0.00     0.045 C 
BRANCH  10  11
ATOM     11  CG  GLU     4      17.608  -0.669   9.573  1.00  0.00     0.100 C 
BRANCH  11  12
ATOM     12  CD  GLU     4      18.748  -0.862   8.573  1.00  0.00     0.185 C 
ATOM     13  OE1 GLU     4      18.920  -2.020   8.109  1.00  0.00    -0.647 OA
ATOM     14  OE2 GLU     4      19.691  -0.048   8.633  1.00  0.00    -0.647 OA
ENDBRANCH  11  12
ENDBRANCH  10  11
ENDBRANCH   9  10
BRANCH   9  15
ATOM     15  N   GLU     4      14.545   0.551   7.938  1.00  0.00    -0.229 NA
ATOM     16  C   PRO     3      14.196   1.363   8.929  1.00  0.00     0.272 C 
ATOM     17  O   PRO     3      15.011   1.977   9.619  1.00  0.00    -0.269 OA
BRANCH  16  18
ATOM     18  CA  PRO     3      12.763   1.894   8.865  1.00  0.00     0.165 C 
ATOM     19  N   PRO     3      12.493   2.820   7.744  1.00  0.00    -0.312 N 
ATOM     20  CD  PRO     3      11.154   2.531   7.169  1.00  0.00     0.105 C 
ATOM     21  C   ASP     2      13.285   3.858   7.419  1.00  0.00     0.257 C 
ATOM     22  CG  PRO     3      10.532   1.520   8.145  1.00  0.00     0.027 C 
ATOM     23  CB  PRO     3      11.737   0.773   8.711  1.00  0.00     0.034 C 
ATOM     24  O   ASP     2      14.187   4.222   8.188  1.00  0.00    -0.270 OA
BRANCH  21  25
ATOM     25  CA  ASP     2      12.859   4.812   6.281  1.00  0.00     0.195 C 
BRANCH  25  26
ATOM     26  CB  ASP     2      13.942   5.151   5.224  1.00  0.00     0.132 C 
BRANCH  26  27
ATOM     27  CG  ASP     2      13.937   4.105   4.094  1.00  0.00     0.188 C 
ATOM     28  OD2 ASP     2      12.923   3.362   4.048  1.00  0.00    -0.647 OA
ATOM     29  OD1 ASP     2      15.056   3.678   3.715  1.00  0.00    -0.647 OA
ENDBRANCH  26  27
ENDBRANCH  25  26
BRANCH  25  30
ATOM     30  N   ASP     2      12.481   6.143   6.787  1.00  0.00    -0.228 NA
ATOM     31  C   TYR     1      11.324   6.486   7.304  1.00  0.00     0.289 C 
ATOM     32  O   TYR     1      10.374   5.753   7.597  1.00  0.00    -0.268 OA
BRANCH  31  33
ATOM     33  CA  TYR     1      11.218   7.993   7.516  1.00  0.00     0.385 C 
ATOM     34  N   TYR     1      12.582   8.522   7.683  1.00  0.00     0.626 N 
BRANCH  33  35
ATOM     35  CB  TYR     1      10.510   8.576   6.295  1.00  0.00     0.075 C 
BRANCH  35  36
ATOM     36  CG  TYR     1      10.574  10.110   6.239  1.00  0.00    -0.019 A 
ATOM     37  CD2 TYR     1       9.867  10.896   7.136  1.00  0.00    -0.002 A 
ATOM     38  CE2 TYR     1      10.047  12.271   7.152  1.00  0.00     0.027 A 
ATOM     39  CZ  TYR     1      10.940  12.850   6.251  1.00  0.00     0.131 A 
ATOM     40  CE1 TYR     1      11.611  12.064   5.331  1.00  0.00     0.027 A 
ATOM     41  OH  TYR     1      11.273  14.151   6.368  1.00  0.00    -0.190 OA
ATOM     42  CD1 TYR     1      11.431  10.689   5.316  1.00  0.00    -0.002 A 
ENDBRANCH  35  36
ENDBRANCH  33  35
ENDBRANCH  31  33
ENDBRANCH  25  30
ENDBRANCH  21  25
ENDBRANCH  16  18
ENDBRANCH   9  15
ENDBRANCH   7   9
ENDBRANCH   5   6
BRANCH   5  43
ATOM     43  CB  TYR     5      14.369  -2.172   4.116  1.00  0.00     0.060 C 
BRANCH  43  44
ATOM     44  CG  TYR     5      12.877  -1.800   4.086  1.00  0.00    -0.020 A 
ATOM     45  CD2 TYR     5      11.925  -2.730   3.690  1.00  0.00    -0.002 A 
ATOM     46  CE2 TYR     5      10.576  -2.387   3.674  1.00  0.00     0.027 A 
ATOM     47  CZ  TYR     5      10.180  -1.114   4.053  1.00  0.00     0.131 A 
ATOM     48  CE1 TYR     5      11.126  -0.183   4.468  1.00  0.00     0.027 A 
ATOM     49  OH  TYR     5       8.893  -0.730   3.907  1.00  0.00    -0.190 OA
ATOM     50  CD1 TYR     5      12.478  -0.526   4.475  1.00  0.00    -0.002 A 
ENDBRANCH  43  44
ENDBRANCH   5  43
ENDBRANCH   3   5
ENDBRANCH   1   2
BRANCH   1  51
ATOM     51  CB  ARG     6      18.843  -5.044   6.116  1.00  0.00     0.036 C 
BRANCH  51  52
ATOM     52  CG  ARG     6      19.980  -5.926   5.596  1.00  0.00     0.029 C 
BRANCH  52  53
ATOM     53  CD  ARG     6      21.271  -5.119   5.485  1.00  0.00     0.145 C 
BRANCH  53  54
ATOM     54  NE  ARG     6      21.040  -3.706   5.827  1.00  0.00    -0.083 NA
ATOM     55  CZ  ARG     6      21.915  -2.701   5.628  1.00  0.00     0.782 C 
ATOM     56  NH2 ARG     6      21.637  -1.467   6.053  1.00  0.00     0.063 N 
ATOM     57  NH1 ARG     6      23.102  -2.943   5.084  1.00  0.00     0.063 N 
ENDBRANCH  53  54
ENDBRANCH  52  53
ENDBRANCH  51  52
ENDBRANCH   1  51
BRANCH   1  58
ATOM     58  C   ARG     6      17.362  -6.815   6.947  1.00  0.00     0.274 C 
ATOM     59  N   ASN     7      16.852  -7.949   6.477  1.00  0.00    -0.228 NA
ATOM     60  O   ARG     6      17.745  -6.636   8.104  1.00  0.00    -0.268 OA
BRANCH  59  61
ATOM     61  CA  ASN     7      16.771  -9.195   7.267  1.00  0.00     0.196 C 
BRANCH  61  62
ATOM     62  C   ASN     7      17.063 -10.436   6.402  1.00  0.00     0.275 C 
ATOM     63  N   PHE     8      16.716 -11.628   6.912  1.00  0.00    -0.228 NA
ATOM     64  O   ASN     7      17.213 -10.257   5.209  1.00  0.00    -0.268 OA
BRANCH  63  65
ATOM     65  CA  PHE     8      16.837 -12.923   6.199  1.00  0.00     0.191 C 
BRANCH  65  66
ATOM     66  CB  PHE     8      18.041 -13.680   6.778  1.00  0.00     0.060 C 
BRANCH  66  67
ATOM     67  CG  PHE     8      19.213 -13.859   5.795  1.00  0.00    -0.020 A 
ATOM     68  CD1 PHE     8      20.305 -14.637   6.153  1.00  0.00    -0.004 A 
ATOM     69  CE1 PHE     8      21.409 -14.716   5.305  1.00  0.00    -0.000 A 
ATOM     70  CZ  PHE     8      21.403 -14.029   4.102  1.00  0.00    -0.000 A 
ATOM     71  CE2 PHE     8      20.304 -13.259   3.735  1.00  0.00    -0.000 A 
ATOM     72  CD2 PHE     8      19.200 -13.180   4.583  1.00  0.00    -0.004 A 
ENDBRANCH  66  67
ENDBRANCH  65  66
BRANCH  65  73
ATOM     73  C   PHE     8      15.560 -13.792   6.204  1.00  0.00     0.275 C 
ATOM     74  N   TRP     9      15.404 -14.624   5.173  1.00  0.00    -0.228 NA
ATOM     75  O   PHE     8      14.629 -13.546   6.975  1.00  0.00    -0.268 OA
BRANCH  74  76
ATOM     76  CA  TRP     9      14.290 -15.602   5.112  1.00  0.00     0.191 C 
BRANCH  76  77
ATOM     77  CB  TRP     9      13.790 -15.695   3.661  1.00  0.00     0.062 C 
BRANCH  77  78
ATOM     78  CG  TRP     9      12.458 -14.981   3.436  1.00  0.00     0.001 A 
ATOM     79  CD1 TRP     9      12.188 -13.716   3.746  1.00  0.00     0.095 A 
ATOM     80  NE1 TRP     9      10.878 -13.512   3.694  1.00  0.00    -0.244 NA
ATOM     81  CE2 TRP     9      10.269 -14.631   3.331  1.00  0.00     0.081 A 
ATOM     82  CD2 TRP     9      11.243 -15.603   3.168  1.00  0.00     0.015 A 
ATOM     83  CZ2 TRP     9       8.925 -14.981   3.212  1.00  0.00     0.019 A 
ATOM     84  CE3 TRP     9      10.896 -16.920   2.904  1.00  0.00     0.001 A 
ATOM     85  CZ3 TRP     9       9.555 -17.274   2.799  1.00  0.00     0.000 A 
ATOM     86  CH2 TRP     9       8.573 -16.294   2.935  1.00  0.00     0.002 A 
ENDBRANCH  77  78
ENDBRANCH  76  77
BRANCH  76  87
ATOM     87  C   TRP     9      14.628 -16.996   5.688  1.00  0.00     0.275 C 
ATOM     88  O   TRP     9      15.005 -17.123   6.849  1.00  0.00    -0.268 OA
ATOM     89  N   GLY    10      14.389 -18.036   4.891  1.00  0.00    -0.226 NA
BRANCH  89  90
ATOM     90  CA  GLY    10      14.608 -19.457   5.277  1.00  0.00     0.218 C 
BRANCH  90  91
ATOM     91  C   GLY    10      13.401 -20.193   5.883  1.00  0.00     0.277 C 
ATOM     92  N   CYS    11      13.170 -19.931   7.168  1.00  0.00    -0.228 NA
ATOM     93  O   GLY    10      12.829 -21.075   5.254  1.00  0.00    -0.268 OA
BRANCH  92  94
ATOM     94  CA  CYS    11      12.070 -20.477   7.995  1.00  0.00     0.198 C 
BRANCH  94  95
ATOM     95  C   CYS    11      11.299 -19.292   8.609  1.00  0.00     0.275 C 
ATOM     96  O   CYS    11      11.912 -18.459   9.267  1.00  0.00    -0.268 OA
ATOM     97  N   GLY    12       9.977 -19.362   8.546  1.00  0.00    -0.225 NA
BRANCH  97  98
ATOM     98  CA  GLY    12       9.092 -18.324   9.097  1.00  0.00     0.226 C 
BRANCH  98  99
ATOM     99  C   GLY    12       7.670 -18.564   8.539  1.00  0.00     0.211 C 
ATOM    100  O1  GLY    12       7.413 -19.724   8.129  1.00  0.00    -0.646 OA
ATOM    101  O2  GLY    12       6.869 -17.611   8.564  1.00  0.00    -0.646 OA
ENDBRANCH  98  99
ENDBRANCH  97  98
ENDBRANCH  94  95
BRANCH  94 102
ATOM    102  CB  CYS    11      12.638 -21.256   9.179  1.00  0.00     0.103 C 
ATOM    103  SG  CYS    11      14.444 -21.097   9.458  1.00  0.00    -0.080 SA
ENDBRANCH  94 102
ENDBRANCH  92  94
ENDBRANCH  90  91
ENDBRANCH  89  90
ENDBRANCH  76  87
ENDBRANCH  74  76
ENDBRANCH  65  73
ENDBRANCH  63  65
ENDBRANCH  61  62
BRANCH  61 104
ATOM    104  CB  ASN     7      15.410  -9.324   7.964  1.00  0.00     0.126 C 
BRANCH 104 105
ATOM    105  CG  ASN     7      14.220  -9.574   7.019  1.00  0.00     0.276 C 
ATOM    106  ND2 ASN     7      13.969  -8.627   6.144  1.00  0.00    -0.107 N 
ATOM    107  OD1 ASN     7      13.419 -10.494   7.126  1.00  0.00    -0.269 OA
ENDBRANCH 104 105
ENDBRANCH  61 104
ENDBRANCH  59  61
ENDBRANCH   1  58
TORSDOF 42
ENDMDL
MODEL 4
REMARK VINA RESULT:      -3.8     27.043     39.612
REMARK WARNING: 32 MAX_TORS EXCEEDED!!!
REMARK  42 active torsions:
REMARK  status: ('A' for Active; 'I' for Inactive)
REMARK    1  A    between atoms: CA_2  and  CB_3 
REMARK    2  A    between atoms: CA_2  and  C_11 
REMARK    3  A    between atoms: CB_3  and  CG_4 
REMARK       I    between atoms: C_11  and  N_13 
REMARK    4  A    between atoms: N_13  and  CA_14 
REMARK    5  A    between atoms: CA_14  and  CB_15 
REMARK    6  A    between atoms: CA_14  and  C_19 
REMARK    7  A    between atoms: CB_15  and  CG_16 
REMARK       I    between atoms: C_19  and  N_21 
REMARK    8  A    between atoms: CA_22  and  C_26 
REMARK       I    between atoms: C_26  and  N_28 
REMARK    9  A    between atoms: N_28  and  CA_29 
REMARK   10  A    between atoms: CA_29  and  C_35 
REMARK   11  A    between atoms: CA_29  and  CB_30 
REMARK   12  A    between atoms: CB_30  and  CG_31 
REMARK   13  A    between atoms: CG_31  and  CD_32 
REMARK       I    between atoms: C_35  and  N_37 
REMARK   14  A    between atoms: N_37  and  CA_38 
REMARK   15  A    between atoms: CA_38  and  CB_39 
REMARK   16  A    between atoms: CA_38  and  C_47 
REMARK   17  A    between atoms: CB_39  and  CG_40 
REMARK       I    between atoms: C_47  and  N_49 
REMARK   18  A    between atoms: N_49  and  CA_50 
REMARK   19  A    between atoms: CA_50  and  CB_51 
REMARK   20  A    between atoms: CA_50  and  C_58 
REMARK   21  A    between atoms: CB_51  and  CG_52 
REMARK   22  A    between atoms: CG_52  and  CD_53 
REMARK   23  A    between atoms: CD_53  and  NE_54 
REMARK       I    between atoms: C_58  and  N_60 
REMARK   24  A    between atoms: N_60  and  CA_61 
REMARK   25  A    between atoms: CA_61  and  C_66 
REMARK   26  A    between atoms: CA_61  and  CB_62 
REMARK   27  A    between atoms: CB_62  and  CG_63 
REMARK       I    between atoms: C_66  and  N_68 
REMARK   28  A    between atoms: N_68  and  CA_69 
REMARK   29  A    between atoms: CA_69  and  CB_70 
REMARK   30  A    between atoms: CA_69  and  C_77 
REMARK   31  A    between atoms: CB_70  and  CG_71 
REMARK       I    between atoms: C_77  and  N_79 
REMARK   32  A    between atoms: N_79  and  CA_80 
REMARK   33  A    between atoms: CA_80  and  CB_81 
REMARK   34  A    between atoms: CA_80  and  C_91 
REMARK   35  A    between atoms: CB_81  and  CG_82 
REMARK       I    between atoms: C_91  and  N_93 
REMARK   36  A    between atoms: N_93  and  CA_94 
REMARK   37  A    between atoms: CA_94  and  C_95 
REMARK       I    between atoms: C_95  and  N_97 
REMARK   38  A    between atoms: N_97  and  CA_98 
REMARK   39  A    between atoms: CA_98  and  C_101 
REMARK   40  A    between atoms: CA_98  and  CB_99 
REMARK       I    between atoms: C_101  and  N_103 
REMARK   41  A    between atoms: N_103  and  CA_104 
REMARK   42  A    between atoms: CA_104  and  C_105 
ROOT
ATOM      1  CA  ARG     6      13.064   5.181   7.072  1.00  0.00     0.186 C 
ENDROOT
BRANCH   1   2
ATOM      2  N   ARG     6      12.936   4.293   5.893  1.00  0.00    -0.229 NA
ATOM      3  C   TYR     5      12.899   2.958   6.000  1.00  0.00     0.275 C 
ATOM      4  O   TYR     5      12.939   2.383   7.088  1.00  0.00    -0.268 OA
BRANCH   3   5
ATOM      5  CA  TYR     5      12.688   2.157   4.705  1.00  0.00     0.191 C 
BRANCH   5   6
ATOM      6  N   TYR     5      13.162   0.752   4.793  1.00  0.00    -0.228 NA
ATOM      7  C   GLU     4      14.411   0.377   4.473  1.00  0.00     0.274 C 
ATOM      8  O   GLU     4      15.297   1.182   4.217  1.00  0.00    -0.268 OA
BRANCH   7   9
ATOM      9  CA  GLU     4      14.770  -1.096   4.759  1.00  0.00     0.187 C 
BRANCH   9  10
ATOM     10  CB  GLU     4      13.487  -1.910   4.990  1.00  0.00     0.045 C 
BRANCH  10  11
ATOM     11  CG  GLU     4      12.855  -2.559   3.739  1.00  0.00     0.100 C 
BRANCH  11  12
ATOM     12  CD  GLU     4      13.231  -4.026   3.532  1.00  0.00     0.185 C 
ATOM     13  OE1 GLU     4      12.296  -4.836   3.302  1.00  0.00    -0.647 OA
ATOM     14  OE2 GLU     4      14.300  -4.408   4.049  1.00  0.00    -0.647 OA
ENDBRANCH  11  12
ENDBRANCH  10  11
ENDBRANCH   9  10
BRANCH   9  15
ATOM     15  N   GLU     4      15.652  -1.263   5.930  1.00  0.00    -0.229 NA
ATOM     16  C   PRO     3      15.363  -1.057   7.210  1.00  0.00     0.272 C 
ATOM     17  O   PRO     3      14.213  -1.052   7.651  1.00  0.00    -0.269 OA
BRANCH  16  18
ATOM     18  CA  PRO     3      16.509  -1.322   8.188  1.00  0.00     0.165 C 
ATOM     19  N   PRO     3      17.289  -2.548   7.915  1.00  0.00    -0.312 N 
ATOM     20  CD  PRO     3      18.733  -2.281   8.138  1.00  0.00     0.105 C 
ATOM     21  C   ASP     2      16.737  -3.748   7.660  1.00  0.00     0.257 C 
ATOM     22  CG  PRO     3      18.766  -0.883   8.776  1.00  0.00     0.027 C 
ATOM     23  CB  PRO     3      17.535  -0.191   8.198  1.00  0.00     0.034 C 
ATOM     24  O   ASP     2      15.526  -3.935   7.852  1.00  0.00    -0.270 OA
BRANCH  21  25
ATOM     25  CA  ASP     2      17.651  -4.981   7.473  1.00  0.00     0.195 C 
BRANCH  25  26
ATOM     26  CB  ASP     2      18.101  -5.292   6.022  1.00  0.00     0.132 C 
BRANCH  26  27
ATOM     27  CG  ASP     2      19.539  -5.842   6.012  1.00  0.00     0.188 C 
ATOM     28  OD2 ASP     2      19.666  -7.019   5.588  1.00  0.00    -0.647 OA
ATOM     29  OD1 ASP     2      20.321  -5.393   6.886  1.00  0.00    -0.647 OA
ENDBRANCH  26  27
ENDBRANCH  25  26
BRANCH  25  30
ATOM     30  N   ASP     2      16.982  -6.231   7.874  1.00  0.00    -0.228 NA
ATOM     31  C   TYR     1      16.164  -6.952   7.144  1.00  0.00     0.289 C 
ATOM     32  O   TYR     1      15.892  -6.817   5.946  1.00  0.00    -0.268 OA
BRANCH  31  33
ATOM     33  CA  TYR     1      15.496  -8.056   7.957  1.00  0.00     0.385 C 
ATOM     34  N   TYR     1      15.020  -7.463   9.218  1.00  0.00     0.626 N 
BRANCH  33  35
ATOM     35  CB  TYR     1      14.357  -8.620   7.110  1.00  0.00     0.075 C 
BRANCH  35  36
ATOM     36  CG  TYR     1      14.370 -10.154   7.029  1.00  0.00    -0.019 A 
ATOM     37  CD2 TYR     1      13.194 -10.887   7.017  1.00  0.00    -0.002 A 
ATOM     38  CE2 TYR     1      13.228 -12.257   6.807  1.00  0.00     0.027 A 
ATOM     39  CZ  TYR     1      14.459 -12.885   6.616  1.00  0.00     0.131 A 
ATOM     40  CE1 TYR     1      15.631 -12.154   6.671  1.00  0.00     0.027 A 
ATOM     41  OH  TYR     1      14.509 -14.175   6.226  1.00  0.00    -0.190 OA
ATOM     42  CD1 TYR     1      15.597 -10.784   6.881  1.00  0.00    -0.002 A 
ENDBRANCH  35  36
ENDBRANCH  33  35
ENDBRANCH  31  33
ENDBRANCH  25  30
ENDBRANCH  21  25
ENDBRANCH  16  18
ENDBRANCH   9  15
ENDBRANCH   7   9
ENDBRANCH   5   6
BRANCH   5  43
ATOM     43  CB  TYR     5      11.212   2.191   4.272  1.00  0.00     0.060 C 
BRANCH  43  44
ATOM     44  CG  TYR     5      10.457   0.913   4.676  1.00  0.00    -0.020 A 
ATOM     45  CD2 TYR     5      10.149   0.665   6.007  1.00  0.00    -0.002 A 
ATOM     46  CE2 TYR     5       9.459  -0.490   6.362  1.00  0.00     0.027 A 
ATOM     47  CZ  TYR     5       9.076  -1.396   5.385  1.00  0.00     0.131 A 
ATOM     48  CE1 TYR     5       9.364  -1.146   4.048  1.00  0.00     0.027 A 
ATOM     49  OH  TYR     5       8.531  -2.582   5.733  1.00  0.00    -0.190 OA
ATOM     50  CD1 TYR     5      10.064   0.008   3.696  1.00  0.00    -0.002 A 
ENDBRANCH  43  44
ENDBRANCH   5  43
ENDBRANCH   3   5
ENDBRANCH   1   2
BRANCH   1  51
ATOM     51  CB  ARG     6      14.456   5.792   7.207  1.00  0.00     0.036 C 
BRANCH  51  52
ATOM     52  CG  ARG     6      15.549   4.993   6.493  1.00  0.00     0.029 C 
BRANCH  52  53
ATOM     53  CD  ARG     6      16.599   4.517   7.493  1.00  0.00     0.145 C 
BRANCH  53  54
ATOM     54  NE  ARG     6      17.959   4.809   7.011  1.00  0.00    -0.083 NA
ATOM     55  CZ  ARG     6      18.723   3.978   6.278  1.00  0.00     0.782 C 
ATOM     56  NH2 ARG     6      19.977   4.310   5.963  1.00  0.00     0.063 N 
ATOM     57  NH1 ARG     6      18.268   2.778   5.931  1.00  0.00     0.063 N 
ENDBRANCH  53  54
ENDBRANCH  52  53
ENDBRANCH  51  52
ENDBRANCH   1  51
BRANCH   1  58
ATOM     58  C   ARG     6      12.073   6.351   7.036  1.00  0.00     0.274 C 
ATOM     59  N   ASN     7      12.543   7.490   6.534  1.00  0.00    -0.228 NA
ATOM     60  O   ARG     6      10.930   6.184   7.465  1.00  0.00    -0.268 OA
BRANCH  59  61
ATOM     61  CA  ASN     7      11.711   8.693   6.328  1.00  0.00     0.196 C 
BRANCH  61  62
ATOM     62  C   ASN     7      11.986   9.345   4.959  1.00  0.00     0.275 C 
ATOM     63  N   PHE     8      11.844  10.677   4.881  1.00  0.00    -0.228 NA
ATOM     64  O   ASN     7      12.665   8.715   4.171  1.00  0.00    -0.268 OA
BRANCH  63  65
ATOM     65  CA  PHE     8      12.145  11.493   3.679  1.00  0.00     0.191 C 
BRANCH  65  66
ATOM     66  CB  PHE     8      10.952  12.423   3.418  1.00  0.00     0.060 C 
BRANCH  66  67
ATOM     67  CG  PHE     8      10.597  13.349   4.597  1.00  0.00    -0.020 A 
ATOM     68  CD1 PHE     8      10.206  12.805   5.812  1.00  0.00    -0.004 A 
ATOM     69  CE1 PHE     8       9.787  13.642   6.845  1.00  0.00    -0.000 A 
ATOM     70  CZ  PHE     8       9.779  15.015   6.658  1.00  0.00    -0.000 A 
ATOM     71  CE2 PHE     8      10.184  15.564   5.445  1.00  0.00    -0.000 A 
ATOM     72  CD2 PHE     8      10.603  14.726   4.412  1.00  0.00    -0.004 A 
ENDBRANCH  66  67
ENDBRANCH  65  66
BRANCH  65  73
ATOM     73  C   PHE     8      13.477  12.276   3.739  1.00  0.00     0.275 C 
ATOM     74  N   TRP     9      14.043  12.393   4.941  1.00  0.00    -0.228 NA
ATOM     75  O   PHE     8      13.852  12.961   2.784  1.00  0.00    -0.268 OA
BRANCH  74  76
ATOM     76  CA  TRP     9      15.380  13.010   5.125  1.00  0.00     0.191 C 
BRANCH  76  77
ATOM     77  CB  TRP     9      15.281  14.092   6.213  1.00  0.00     0.062 C 
BRANCH  77  78
ATOM     78  CG  TRP     9      14.451  15.302   5.785  1.00  0.00     0.001 A 
ATOM     79  CD1 TRP     9      14.610  16.001   4.665  1.00  0.00     0.095 A 
ATOM     80  NE1 TRP     9      13.934  17.140   4.749  1.00  0.00    -0.244 NA
ATOM     81  CE2 TRP     9      13.306  17.198   5.913  1.00  0.00     0.081 A 
ATOM     82  CD2 TRP     9      13.620  16.046   6.616  1.00  0.00     0.015 A 
ATOM     83  CZ2 TRP     9      12.547  18.192   6.531  1.00  0.00     0.019 A 
ATOM     84  CE3 TRP     9      13.203  15.877   7.928  1.00  0.00     0.001 A 
ATOM     85  CZ3 TRP     9      12.457  16.873   8.551  1.00  0.00     0.000 A 
ATOM     86  CH2 TRP     9      12.116  18.022   7.839  1.00  0.00     0.002 A 
ENDBRANCH  77  78
ENDBRANCH  76  77
BRANCH  76  87
ATOM     87  C   TRP     9      16.515  12.004   5.423  1.00  0.00     0.275 C 
ATOM     88  O   TRP     9      16.944  11.260   4.546  1.00  0.00    -0.268 OA
ATOM     89  N   GLY    10      17.054  12.069   6.640  1.00  0.00    -0.226 NA
BRANCH  89  90
ATOM     90  CA  GLY    10      18.183  11.217   7.103  1.00  0.00     0.218 C 
BRANCH  90  91
ATOM     91  C   GLY    10      19.596  11.787   6.901  1.00  0.00     0.277 C 
ATOM     92  N   CYS    11      19.657  13.113   6.783  1.00  0.00    -0.228 NA
ATOM     93  O   GLY    10      20.546  11.041   6.693  1.00  0.00    -0.268 OA
BRANCH  92  94
ATOM     94  CA  CYS    11      20.880  13.928   6.605  1.00  0.00     0.198 C 
BRANCH  94  95
ATOM     95  C   CYS    11      20.915  14.988   7.722  1.00  0.00     0.275 C 
ATOM     96  O   CYS    11      20.213  14.832   8.715  1.00  0.00    -0.268 OA
ATOM     97  N   GLY    12      21.562  16.110   7.440  1.00  0.00    -0.225 NA
BRANCH  97  98
ATOM     98  CA  GLY    12      21.678  17.229   8.387  1.00  0.00     0.226 C 
BRANCH  98  99
ATOM     99  C   GLY    12      21.105  18.493   7.705  1.00  0.00     0.211 C 
ATOM    100  O1  GLY    12      21.499  18.730   6.535  1.00  0.00    -0.646 OA
ATOM    101  O2  GLY    12      20.273  19.168   8.339  1.00  0.00    -0.646 OA
ENDBRANCH  98  99
ENDBRANCH  97  98
ENDBRANCH  94  95
BRANCH  94 102
ATOM    102  CB  CYS    11      20.803  14.710   5.296  1.00  0.00     0.103 C 
ATOM    103  SG  CYS    11      19.119  15.111   4.691  1.00  0.00    -0.080 SA
ENDBRANCH  94 102
ENDBRANCH  92  94
ENDBRANCH  90  91
ENDBRANCH  89  90
ENDBRANCH  76  87
ENDBRANCH  74  76
ENDBRANCH  65  73
ENDBRANCH  63  65
ENDBRANCH  61  62
BRANCH  61 104
ATOM    104  CB  ASN     7      11.907   9.706   7.464  1.00  0.00     0.126 C 
BRANCH 104 105
ATOM    105  CG  ASN     7      13.311   9.705   8.097  1.00  0.00     0.276 C 
ATOM    106  ND2 ASN     7      13.379   9.306   9.347  1.00  0.00    -0.107 N 
ATOM    107  OD1 ASN     7      14.314  10.184   7.584  1.00  0.00    -0.269 OA
ENDBRANCH 104 105
ENDBRANCH  61 104
ENDBRANCH  59  61
ENDBRANCH   1  58
TORSDOF 42
ENDMDL
MODEL 5
REMARK VINA RESULT:      -3.7     19.917     27.009
REMARK WARNING: 32 MAX_TORS EXCEEDED!!!
REMARK  42 active torsions:
REMARK  status: ('A' for Active; 'I' for Inactive)
REMARK    1  A    between atoms: CA_2  and  CB_3 
REMARK    2  A    between atoms: CA_2  and  C_11 
REMARK    3  A    between atoms: CB_3  and  CG_4 
REMARK       I    between atoms: C_11  and  N_13 
REMARK    4  A    between atoms: N_13  and  CA_14 
REMARK    5  A    between atoms: CA_14  and  CB_15 
REMARK    6  A    between atoms: CA_14  and  C_19 
REMARK    7  A    between atoms: CB_15  and  CG_16 
REMARK       I    between atoms: C_19  and  N_21 
REMARK    8  A    between atoms: CA_22  and  C_26 
REMARK       I    between atoms: C_26  and  N_28 
REMARK    9  A    between atoms: N_28  and  CA_29 
REMARK   10  A    between atoms: CA_29  and  C_35 
REMARK   11  A    between atoms: CA_29  and  CB_30 
REMARK   12  A    between atoms: CB_30  and  CG_31 
REMARK   13  A    between atoms: CG_31  and  CD_32 
REMARK       I    between atoms: C_35  and  N_37 
REMARK   14  A    between atoms: N_37  and  CA_38 
REMARK   15  A    between atoms: CA_38  and  CB_39 
REMARK   16  A    between atoms: CA_38  and  C_47 
REMARK   17  A    between atoms: CB_39  and  CG_40 
REMARK       I    between atoms: C_47  and  N_49 
REMARK   18  A    between atoms: N_49  and  CA_50 
REMARK   19  A    between atoms: CA_50  and  CB_51 
REMARK   20  A    between atoms: CA_50  and  C_58 
REMARK   21  A    between atoms: CB_51  and  CG_52 
REMARK   22  A    between atoms: CG_52  and  CD_53 
REMARK   23  A    between atoms: CD_53  and  NE_54 
REMARK       I    between atoms: C_58  and  N_60 
REMARK   24  A    between atoms: N_60  and  CA_61 
REMARK   25  A    between atoms: CA_61  and  C_66 
REMARK   26  A    between atoms: CA_61  and  CB_62 
REMARK   27  A    between atoms: CB_62  and  CG_63 
REMARK       I    between atoms: C_66  and  N_68 
REMARK   28  A    between atoms: N_68  and  CA_69 
REMARK   29  A    between atoms: CA_69  and  CB_70 
REMARK   30  A    between atoms: CA_69  and  C_77 
REMARK   31  A    between atoms: CB_70  and  CG_71 
REMARK       I    between atoms: C_77  and  N_79 
REMARK   32  A    between atoms: N_79  and  CA_80 
REMARK   33  A    between atoms: CA_80  and  CB_81 
REMARK   34  A    between atoms: CA_80  and  C_91 
REMARK   35  A    between atoms: CB_81  and  CG_82 
REMARK       I    between atoms: C_91  and  N_93 
REMARK   36  A    between atoms: N_93  and  CA_94 
REMARK   37  A    between atoms: CA_94  and  C_95 
REMARK       I    between atoms: C_95  and  N_97 
REMARK   38  A    between atoms: N_97  and  CA_98 
REMARK   39  A    between atoms: CA_98  and  C_101 
REMARK   40  A    between atoms: CA_98  and  CB_99 
REMARK       I    between atoms: C_101  and  N_103 
REMARK   41  A    between atoms: N_103  and  CA_104 
REMARK   42  A    between atoms: CA_104  and  C_105 
ROOT
ATOM      1  CA  ARG     6      17.686  -6.020   6.044  1.00  0.00     0.186 C 
ENDROOT
BRANCH   1   2
ATOM      2  N   ARG     6      16.550  -5.076   6.165  1.00  0.00    -0.229 NA
ATOM      3  C   TYR     5      16.159  -4.289   5.155  1.00  0.00     0.275 C 
ATOM      4  O   TYR     5      16.701  -4.319   4.049  1.00  0.00    -0.268 OA
BRANCH   3   5
ATOM      5  CA  TYR     5      14.920  -3.410   5.389  1.00  0.00     0.191 C 
BRANCH   5   6
ATOM      6  N   TYR     5      15.064  -2.475   6.535  1.00  0.00    -0.228 NA
ATOM      7  C   GLU     4      15.920  -1.440   6.534  1.00  0.00     0.274 C 
ATOM      8  O   GLU     4      16.547  -1.103   5.538  1.00  0.00    -0.268 OA
BRANCH   7   9
ATOM      9  CA  GLU     4      15.837  -0.492   7.747  1.00  0.00     0.187 C 
BRANCH   9  10
ATOM     10  CB  GLU     4      16.416  -1.184   8.992  1.00  0.00     0.045 C 
BRANCH  10  11
ATOM     11  CG  GLU     4      17.766  -0.641   9.510  1.00  0.00     0.100 C 
BRANCH  11  12
ATOM     12  CD  GLU     4      18.315   0.542   8.714  1.00  0.00     0.185 C 
ATOM     13  OE1 GLU     4      19.259   0.313   7.914  1.00  0.00    -0.647 OA
ATOM     14  OE2 GLU     4      18.154   1.675   9.211  1.00  0.00    -0.647 OA
ENDBRANCH  11  12
ENDBRANCH  10  11
ENDBRANCH   9  10
BRANCH   9  15
ATOM     15  N   GLU     4      14.461  -0.053   8.050  1.00  0.00    -0.229 NA
ATOM     16  C   PRO     3      14.046   0.711   9.053  1.00  0.00     0.272 C 
ATOM     17  O   PRO     3      14.787   1.476   9.672  1.00  0.00    -0.269 OA
BRANCH  16  18
ATOM     18  CA  PRO     3      12.541   0.983   9.088  1.00  0.00     0.165 C 
ATOM     19  N   PRO     3      12.039   1.841   7.993  1.00  0.00    -0.312 N 
ATOM     20  CD  PRO     3      10.736   1.319   7.507  1.00  0.00     0.105 C 
ATOM     21  C   ASP     2      12.614   2.999   7.622  1.00  0.00     0.257 C 
ATOM     22  CG  PRO     3      10.367   0.220   8.517  1.00  0.00     0.027 C 
ATOM     23  CB  PRO     3      11.719  -0.300   8.997  1.00  0.00     0.034 C 
ATOM     24  O   ASP     2      13.488   3.520   8.331  1.00  0.00    -0.270 OA
BRANCH  21  25
ATOM     25  CA  ASP     2      11.953   3.858   6.520  1.00  0.00     0.195 C 
BRANCH  25  26
ATOM     26  CB  ASP     2      12.864   4.288   5.342  1.00  0.00     0.132 C 
BRANCH  26  27
ATOM     27  CG  ASP     2      12.943   3.168   4.287  1.00  0.00     0.188 C 
ATOM     28  OD2 ASP     2      11.847   2.830   3.773  1.00  0.00    -0.647 OA
ATOM     29  OD1 ASP     2      13.868   2.329   4.424  1.00  0.00    -0.647 OA
ENDBRANCH  26  27
ENDBRANCH  25  26
BRANCH  25  30
ATOM     30  N   ASP     2      11.472   5.150   7.039  1.00  0.00    -0.228 NA
ATOM     31  C   TYR     1      10.337   5.374   7.659  1.00  0.00     0.289 C 
ATOM     32  O   TYR     1       9.510   4.546   8.054  1.00  0.00    -0.268 OA
BRANCH  31  33
ATOM     33  CA  TYR     1      10.078   6.864   7.857  1.00  0.00     0.385 C 
ATOM     34  N   TYR     1       9.402   7.036   9.154  1.00  0.00     0.626 N 
BRANCH  33  35
ATOM     35  CB  TYR     1      11.430   7.572   7.804  1.00  0.00     0.075 C 
BRANCH  35  36
ATOM     36  CG  TYR     1      11.482   8.689   6.750  1.00  0.00    -0.019 A 
ATOM     37  CD2 TYR     1      12.269   8.575   5.614  1.00  0.00    -0.002 A 
ATOM     38  CE2 TYR     1      12.195   9.534   4.616  1.00  0.00     0.027 A 
ATOM     39  CZ  TYR     1      11.326  10.614   4.772  1.00  0.00     0.131 A 
ATOM     40  CE1 TYR     1      10.575  10.743   5.927  1.00  0.00     0.027 A 
ATOM     41  OH  TYR     1      11.096  11.454   3.744  1.00  0.00    -0.190 OA
ATOM     42  CD1 TYR     1      10.649   9.784   6.926  1.00  0.00    -0.002 A 
ENDBRANCH  35  36
ENDBRANCH  33  35
ENDBRANCH  31  33
ENDBRANCH  25  30
ENDBRANCH  21  25
ENDBRANCH  16  18
ENDBRANCH   9  15
ENDBRANCH   7   9
ENDBRANCH   5   6
BRANCH   5  43
ATOM     43  CB  TYR     5      14.550  -2.631   4.116  1.00  0.00     0.060 C 
BRANCH  43  44
ATOM     44  CG  TYR     5      13.071  -2.210   4.099  1.00  0.00    -0.020 A 
ATOM     45  CD2 TYR     5      12.697  -0.927   4.477  1.00  0.00    -0.002 A 
ATOM     46  CE2 TYR     5      11.357  -0.552   4.452  1.00  0.00     0.027 A 
ATOM     47  CZ  TYR     5      10.391  -1.460   4.047  1.00  0.00     0.131 A 
ATOM     48  CE1 TYR     5      10.758  -2.741   3.649  1.00  0.00     0.027 A 
ATOM     49  OH  TYR     5       9.080  -1.151   4.152  1.00  0.00    -0.190 OA
ATOM     50  CD1 TYR     5      12.101  -3.117   3.685  1.00  0.00    -0.002 A 
ENDBRANCH  43  44
ENDBRANCH   5  43
ENDBRANCH   3   5
ENDBRANCH   1   2
BRANCH   1  51
ATOM     51  CB  ARG     6      19.031  -5.372   6.357  1.00  0.00     0.036 C 
BRANCH  51  52
ATOM     52  CG  ARG     6      20.171  -5.858   5.458  1.00  0.00     0.029 C 
BRANCH  52  53
ATOM     53  CD  ARG     6      20.127  -5.142   4.111  1.00  0.00     0.145 C 
BRANCH  53  54
ATOM     54  NE  ARG     6      19.997  -3.686   4.291  1.00  0.00    -0.083 NA
ATOM     55  CZ  ARG     6      20.809  -2.757   3.751  1.00  0.00     0.782 C 
ATOM     56  NH2 ARG     6      20.651  -1.465   4.048  1.00  0.00     0.063 N 
ATOM     57  NH1 ARG     6      21.831  -3.122   2.986  1.00  0.00     0.063 N 
ENDBRANCH  53  54
ENDBRANCH  52  53
ENDBRANCH  51  52
ENDBRANCH   1  51
BRANCH   1  58
ATOM     58  C   ARG     6      17.550  -7.225   6.984  1.00  0.00     0.274 C 
ATOM     59  N   ASN     7      16.552  -8.060   6.710  1.00  0.00    -0.228 NA
ATOM     60  O   ARG     6      18.344  -7.352   7.917  1.00  0.00    -0.268 OA
BRANCH  59  61
ATOM     61  CA  ASN     7      16.325  -9.324   7.441  1.00  0.00     0.196 C 
BRANCH  61  62
ATOM     62  C   ASN     7      16.697 -10.550   6.584  1.00  0.00     0.275 C 
ATOM     63  N   PHE     8      16.280 -11.747   7.022  1.00  0.00    -0.228 NA
ATOM     64  O   ASN     7      16.984 -10.346   5.420  1.00  0.00    -0.268 OA
BRANCH  63  65
ATOM     65  CA  PHE     8      16.464 -13.028   6.297  1.00  0.00     0.191 C 
BRANCH  65  66
ATOM     66  CB  PHE     8      17.592 -13.811   6.982  1.00  0.00     0.060 C 
BRANCH  66  67
ATOM     67  CG  PHE     8      18.974 -13.645   6.322  1.00  0.00    -0.020 A 
ATOM     68  CD1 PHE     8      20.126 -13.853   7.067  1.00  0.00    -0.004 A 
ATOM     69  CE1 PHE     8      21.375 -13.604   6.498  1.00  0.00    -0.000 A 
ATOM     70  CZ  PHE     8      21.458 -13.165   5.186  1.00  0.00    -0.000 A 
ATOM     71  CE2 PHE     8      20.305 -12.969   4.434  1.00  0.00    -0.000 A 
ATOM     72  CD2 PHE     8      19.056 -13.218   5.003  1.00  0.00    -0.004 A 
ENDBRANCH  66  67
ENDBRANCH  65  66
BRANCH  65  73
ATOM     73  C   PHE     8      15.185 -13.882   6.146  1.00  0.00     0.275 C 
ATOM     74  N   TRP     9      15.111 -14.654   5.061  1.00  0.00    -0.228 NA
ATOM     75  O   PHE     8      14.194 -13.669   6.849  1.00  0.00    -0.268 OA
BRANCH  74  76
ATOM     76  CA  TRP     9      14.001 -15.616   4.852  1.00  0.00     0.191 C 
BRANCH  76  77
ATOM     77  CB  TRP     9      13.024 -15.028   3.820  1.00  0.00     0.062 C 
BRANCH  77  78
ATOM     78  CG  TRP     9      11.671 -14.649   4.420  1.00  0.00     0.001 A 
ATOM     79  CD1 TRP     9      11.305 -13.433   4.814  1.00  0.00     0.095 A 
ATOM     80  NE1 TRP     9      10.201 -13.512   5.546  1.00  0.00    -0.244 NA
ATOM     81  CE2 TRP     9       9.813 -14.777   5.628  1.00  0.00     0.081 A 
ATOM     82  CD2 TRP     9      10.735 -15.542   4.931  1.00  0.00     0.015 A 
ATOM     83  CZ2 TRP     9       8.790 -15.409   6.333  1.00  0.00     0.019 A 
ATOM     84  CE3 TRP     9      10.659 -16.927   4.940  1.00  0.00     0.001 A 
ATOM     85  CZ3 TRP     9       9.647 -17.561   5.653  1.00  0.00     0.000 A 
ATOM     86  CH2 TRP     9       8.703 -16.794   6.333  1.00  0.00     0.002 A 
ENDBRANCH  77  78
ENDBRANCH  76  77
BRANCH  76  87
ATOM     87  C   TRP     9      14.451 -17.042   4.463  1.00  0.00     0.275 C 
ATOM     88  O   TRP     9      13.823 -17.698   3.638  1.00  0.00    -0.268 OA
ATOM     89  N   GLY    10      15.598 -17.462   4.995  1.00  0.00    -0.226 NA
BRANCH  89  90
ATOM     90  CA  GLY    10      16.220 -18.784   4.710  1.00  0.00     0.218 C 
BRANCH  90  91
ATOM     91  C   GLY    10      15.798 -19.947   5.623  1.00  0.00     0.277 C 
ATOM     92  N   CYS    11      14.630 -20.510   5.316  1.00  0.00    -0.228 NA
ATOM     93  O   GLY    10      16.425 -20.195   6.647  1.00  0.00    -0.268 OA
BRANCH  92  94
ATOM     94  CA  CYS    11      13.994 -21.655   6.005  1.00  0.00     0.198 C 
BRANCH  94  95
ATOM     95  C   CYS    11      13.245 -22.492   4.950  1.00  0.00     0.275 C 
ATOM     96  O   CYS    11      12.834 -21.941   3.935  1.00  0.00    -0.268 OA
ATOM     97  N   GLY    12      12.921 -23.726   5.309  1.00  0.00    -0.225 NA
BRANCH  97  98
ATOM     98  CA  GLY    12      12.192 -24.651   4.428  1.00  0.00     0.226 C 
BRANCH  98  99
ATOM     99  C   GLY    12      12.822 -26.055   4.584  1.00  0.00     0.211 C 
ATOM    100  O1  GLY    12      12.269 -26.834   5.402  1.00  0.00    -0.646 OA
ATOM    101  O2  GLY    12      13.804 -26.333   3.872  1.00  0.00    -0.646 OA
ENDBRANCH  98  99
ENDBRANCH  97  98
ENDBRANCH  94  95
BRANCH  94 102
ATOM    102  CB  CYS    11      12.923 -21.157   6.972  1.00  0.00     0.103 C 
ATOM    103  SG  CYS    11      13.485 -20.778   8.676  1.00  0.00    -0.080 SA
ENDBRANCH  94 102
ENDBRANCH  92  94
ENDBRANCH  90  91
ENDBRANCH  89  90
ENDBRANCH  76  87
ENDBRANCH  74  76
ENDBRANCH  65  73
ENDBRANCH  63  65
ENDBRANCH  61  62
BRANCH  61 104
ATOM    104  CB  ASN     7      14.877  -9.426   7.938  1.00  0.00     0.126 C 
BRANCH 104 105
ATOM    105  CG  ASN     7      13.819  -9.556   6.827  1.00  0.00     0.276 C 
ATOM    106  ND2 ASN     7      13.929  -8.716   5.824  1.00  0.00    -0.107 N 
ATOM    107  OD1 ASN     7      12.819 -10.261   6.888  1.00  0.00    -0.269 OA
ENDBRANCH 104 105
ENDBRANCH  61 104
ENDBRANCH  59  61
ENDBRANCH   1  58
TORSDOF 42
ENDMDL
MODEL 6
REMARK VINA RESULT:      -3.7      4.409     14.593
REMARK WARNING: 32 MAX_TORS EXCEEDED!!!
REMARK  42 active torsions:
REMARK  status: ('A' for Active; 'I' for Inactive)
REMARK    1  A    between atoms: CA_2  and  CB_3 
REMARK    2  A    between atoms: CA_2  and  C_11 
REMARK    3  A    between atoms: CB_3  and  CG_4 
REMARK       I    between atoms: C_11  and  N_13 
REMARK    4  A    between atoms: N_13  and  CA_14 
REMARK    5  A    between atoms: CA_14  and  CB_15 
REMARK    6  A    between atoms: CA_14  and  C_19 
REMARK    7  A    between atoms: CB_15  and  CG_16 
REMARK       I    between atoms: C_19  and  N_21 
REMARK    8  A    between atoms: CA_22  and  C_26 
REMARK       I    between atoms: C_26  and  N_28 
REMARK    9  A    between atoms: N_28  and  CA_29 
REMARK   10  A    between atoms: CA_29  and  C_35 
REMARK   11  A    between atoms: CA_29  and  CB_30 
REMARK   12  A    between atoms: CB_30  and  CG_31 
REMARK   13  A    between atoms: CG_31  and  CD_32 
REMARK       I    between atoms: C_35  and  N_37 
REMARK   14  A    between atoms: N_37  and  CA_38 
REMARK   15  A    between atoms: CA_38  and  CB_39 
REMARK   16  A    between atoms: CA_38  and  C_47 
REMARK   17  A    between atoms: CB_39  and  CG_40 
REMARK       I    between atoms: C_47  and  N_49 
REMARK   18  A    between atoms: N_49  and  CA_50 
REMARK   19  A    between atoms: CA_50  and  CB_51 
REMARK   20  A    between atoms: CA_50  and  C_58 
REMARK   21  A    between atoms: CB_51  and  CG_52 
REMARK   22  A    between atoms: CG_52  and  CD_53 
REMARK   23  A    between atoms: CD_53  and  NE_54 
REMARK       I    between atoms: C_58  and  N_60 
REMARK   24  A    between atoms: N_60  and  CA_61 
REMARK   25  A    between atoms: CA_61  and  C_66 
REMARK   26  A    between atoms: CA_61  and  CB_62 
REMARK   27  A    between atoms: CB_62  and  CG_63 
REMARK       I    between atoms: C_66  and  N_68 
REMARK   28  A    between atoms: N_68  and  CA_69 
REMARK   29  A    between atoms: CA_69  and  CB_70 
REMARK   30  A    between atoms: CA_69  and  C_77 
REMARK   31  A    between atoms: CB_70  and  CG_71 
REMARK       I    between atoms: C_77  and  N_79 
REMARK   32  A    between atoms: N_79  and  CA_80 
REMARK   33  A    between atoms: CA_80  and  CB_81 
REMARK   34  A    between atoms: CA_80  and  C_91 
REMARK   35  A    between atoms: CB_81  and  CG_82 
REMARK       I    between atoms: C_91  and  N_93 
REMARK   36  A    between atoms: N_93  and  CA_94 
REMARK   37  A    between atoms: CA_94  and  C_95 
REMARK       I    between atoms: C_95  and  N_97 
REMARK   38  A    between atoms: N_97  and  CA_98 
REMARK   39  A    between atoms: CA_98  and  C_101 
REMARK   40  A    between atoms: CA_98  and  CB_99 
REMARK       I    between atoms: C_101  and  N_103 
REMARK   41  A    between atoms: N_103  and  CA_104 
REMARK   42  A    between atoms: CA_104  and  C_105 
ROOT
ATOM      1  CA  ARG     6       0.278 -24.332   6.783  1.00  0.00     0.186 C 
ENDROOT
BRANCH   1   2
ATOM      2  N   ARG     6       1.611 -24.946   6.580  1.00  0.00    -0.229 NA
ATOM      3  C   TYR     5       2.030 -26.003   7.288  1.00  0.00     0.275 C 
ATOM      4  O   TYR     5       1.323 -26.551   8.134  1.00  0.00    -0.268 OA
BRANCH   3   5
ATOM      5  CA  TYR     5       3.404 -26.589   6.926  1.00  0.00     0.191 C 
BRANCH   5   6
ATOM      6  N   TYR     5       3.374 -28.051   6.660  1.00  0.00    -0.228 NA
ATOM      7  C   GLU     4       2.776 -28.589   5.585  1.00  0.00     0.274 C 
ATOM      8  O   GLU     4       2.330 -27.911   4.669  1.00  0.00    -0.268 OA
BRANCH   7   9
ATOM      9  CA  GLU     4       2.964 -30.108   5.396  1.00  0.00     0.187 C 
BRANCH   9  10
ATOM     10  CB  GLU     4       4.123 -30.373   4.421  1.00  0.00     0.045 C 
BRANCH  10  11
ATOM     11  CG  GLU     4       5.494 -29.779   4.813  1.00  0.00     0.100 C 
BRANCH  11  12
ATOM     12  CD  GLU     4       6.693 -30.540   4.249  1.00  0.00     0.185 C 
ATOM     13  OE1 GLU     4       6.690 -30.790   3.015  1.00  0.00    -0.647 OA
ATOM     14  OE2 GLU     4       7.331 -31.254   5.048  1.00  0.00    -0.647 OA
ENDBRANCH  11  12
ENDBRANCH  10  11
ENDBRANCH   9  10
BRANCH   9  15
ATOM     15  N   GLU     4       1.756 -30.786   4.886  1.00  0.00    -0.229 NA
ATOM     16  C   PRO     3       1.245 -31.950   5.270  1.00  0.00     0.272 C 
ATOM     17  O   PRO     3       1.486 -32.467   6.362  1.00  0.00    -0.269 OA
BRANCH  16  18
ATOM     18  CA  PRO     3      -0.027 -32.378   4.536  1.00  0.00     0.165 C 
ATOM     19  N   PRO     3      -1.221 -31.556   4.829  1.00  0.00    -0.312 N 
ATOM     20  CD  PRO     3      -1.992 -31.332   3.580  1.00  0.00     0.105 C 
ATOM     21  C   ASP     2      -1.610 -31.212   6.070  1.00  0.00     0.257 C 
ATOM     22  CG  PRO     3      -1.317 -32.249   2.548  1.00  0.00     0.027 C 
ATOM     23  CB  PRO     3       0.133 -32.320   3.019  1.00  0.00     0.034 C 
ATOM     24  O   ASP     2      -1.096 -31.753   7.061  1.00  0.00    -0.270 OA
BRANCH  21  25
ATOM     25  CA  ASP     2      -2.924 -30.422   6.264  1.00  0.00     0.195 C 
BRANCH  25  26
ATOM     26  CB  ASP     2      -2.933 -29.367   7.400  1.00  0.00     0.132 C 
BRANCH  26  27
ATOM     27  CG  ASP     2      -1.724 -28.423   7.267  1.00  0.00     0.188 C 
ATOM     28  OD2 ASP     2      -0.836 -28.552   8.148  1.00  0.00    -0.647 OA
ATOM     29  OD1 ASP     2      -1.938 -27.303   6.739  1.00  0.00    -0.647 OA
ENDBRANCH  26  27
ENDBRANCH  25  26
BRANCH  25  30
ATOM     30  N   ASP     2      -4.048 -31.298   6.634  1.00  0.00    -0.228 NA
ATOM     31  C   TYR     1      -4.791 -32.009   5.818  1.00  0.00     0.289 C 
ATOM     32  O   TYR     1      -4.625 -32.199   4.609  1.00  0.00    -0.268 OA
BRANCH  31  33
ATOM     33  CA  TYR     1      -5.994 -32.621   6.528  1.00  0.00     0.385 C 
ATOM     34  N   TYR     1      -5.824 -32.403   7.974  1.00  0.00     0.626 N 
BRANCH  33  35
ATOM     35  CB  TYR     1      -7.244 -31.939   5.977  1.00  0.00     0.075 C 
BRANCH  35  36
ATOM     36  CG  TYR     1      -8.342 -32.933   5.569  1.00  0.00    -0.019 A 
ATOM     37  CD2 TYR     1      -9.020 -32.808   4.367  1.00  0.00    -0.002 A 
ATOM     38  CE2 TYR     1      -9.908 -33.792   3.961  1.00  0.00     0.027 A 
ATOM     39  CZ  TYR     1     -10.114 -34.902   4.780  1.00  0.00     0.131 A 
ATOM     40  CE1 TYR     1      -9.465 -35.001   5.998  1.00  0.00     0.027 A 
ATOM     41  OH  TYR     1     -10.823 -35.956   4.328  1.00  0.00    -0.190 OA
ATOM     42  CD1 TYR     1      -8.577 -34.016   6.403  1.00  0.00    -0.002 A 
ENDBRANCH  35  36
ENDBRANCH  33  35
ENDBRANCH  31  33
ENDBRANCH  25  30
ENDBRANCH  21  25
ENDBRANCH  16  18
ENDBRANCH   9  15
ENDBRANCH   7   9
ENDBRANCH   5   6
BRANCH   5  43
ATOM     43  CB  TYR     5       4.019 -25.848   5.726  1.00  0.00     0.060 C 
BRANCH  43  44
ATOM     44  CG  TYR     5       5.555 -25.917   5.722  1.00  0.00    -0.020 A 
ATOM     45  CD2 TYR     5       6.251 -26.103   4.535  1.00  0.00    -0.002 A 
ATOM     46  CE2 TYR     5       7.642 -26.157   4.541  1.00  0.00     0.027 A 
ATOM     47  CZ  TYR     5       8.336 -26.024   5.733  1.00  0.00     0.131 A 
ATOM     48  CE1 TYR     5       7.647 -25.819   6.923  1.00  0.00     0.027 A 
ATOM     49  OH  TYR     5       9.673 -26.214   5.767  1.00  0.00    -0.190 OA
ATOM     50  CD1 TYR     5       6.253 -25.775   6.916  1.00  0.00    -0.002 A 
ENDBRANCH  43  44
ENDBRANCH   5  43
ENDBRANCH   3   5
ENDBRANCH   1   2
BRANCH   1  51
ATOM     51  CB  ARG     6       0.307 -23.161   7.760  1.00  0.00     0.036 C 
BRANCH  51  52
ATOM     52  CG  ARG     6      -0.562 -23.374   9.002  1.00  0.00     0.029 C 
BRANCH  52  53
ATOM     53  CD  ARG     6      -1.372 -24.661   8.869  1.00  0.00     0.145 C 
BRANCH  53  54
ATOM     54  NE  ARG     6      -2.808 -24.369   8.729  1.00  0.00    -0.083 NA
ATOM     55  CZ  ARG     6      -3.811 -25.181   9.115  1.00  0.00     0.782 C 
ATOM     56  NH2 ARG     6      -5.081 -24.855   8.865  1.00  0.00     0.063 N 
ATOM     57  NH1 ARG     6      -3.546 -26.357   9.672  1.00  0.00     0.063 N 
ENDBRANCH  53  54
ENDBRANCH  52  53
ENDBRANCH  51  52
ENDBRANCH   1  51
BRANCH   1  58
ATOM     58  C   ARG     6      -0.328 -23.799   5.478  1.00  0.00     0.274 C 
ATOM     59  N   ASN     7      -1.016 -24.682   4.759  1.00  0.00    -0.228 NA
ATOM     60  O   ARG     6      -0.149 -22.620   5.170  1.00  0.00    -0.268 OA
BRANCH  59  61
ATOM     61  CA  ASN     7      -1.752 -24.332   3.527  1.00  0.00     0.196 C 
BRANCH  61  62
ATOM     62  C   ASN     7      -3.175 -23.828   3.840  1.00  0.00     0.275 C 
ATOM     63  N   PHE     8      -3.674 -24.131   5.048  1.00  0.00    -0.228 NA
ATOM     64  O   ASN     7      -3.592 -22.899   3.176  1.00  0.00    -0.268 OA
BRANCH  63  65
ATOM     65  CA  PHE     8      -4.984 -23.666   5.565  1.00  0.00     0.191 C 
BRANCH  65  66
ATOM     66  CB  PHE     8      -5.008 -22.132   5.504  1.00  0.00     0.060 C 
BRANCH  66  67
ATOM     67  CG  PHE     8      -4.027 -21.442   6.471  1.00  0.00    -0.020 A 
ATOM     68  CD1 PHE     8      -4.300 -21.416   7.832  1.00  0.00    -0.004 A 
ATOM     69  CE1 PHE     8      -3.465 -20.704   8.693  1.00  0.00    -0.000 A 
ATOM     70  CZ  PHE     8      -2.360 -20.039   8.187  1.00  0.00    -0.000 A 
ATOM     71  CE2 PHE     8      -2.077 -20.076   6.825  1.00  0.00    -0.000 A 
ATOM     72  CD2 PHE     8      -2.912 -20.788   5.964  1.00  0.00    -0.004 A 
ENDBRANCH  66  67
ENDBRANCH  65  66
BRANCH  65  73
ATOM     73  C   PHE     8      -6.217 -24.284   4.868  1.00  0.00     0.275 C 
ATOM     74  N   TRP     9      -7.392 -23.701   5.114  1.00  0.00    -0.228 NA
ATOM     75  O   PHE     8      -6.152 -25.392   4.330  1.00  0.00    -0.268 OA
BRANCH  74  76
ATOM     76  CA  TRP     9      -8.636 -24.112   4.417  1.00  0.00     0.191 C 
BRANCH  76  77
ATOM     77  CB  TRP     9      -9.477 -24.974   5.372  1.00  0.00     0.062 C 
BRANCH  77  78
ATOM     78  CG  TRP     9      -9.723 -26.389   4.848  1.00  0.00     0.001 A 
ATOM     79  CD1 TRP     9     -10.151 -26.706   3.629  1.00  0.00     0.095 A 
ATOM     80  NE1 TRP     9     -10.533 -27.977   3.606  1.00  0.00    -0.244 NA
ATOM     81  CE2 TRP     9     -10.344 -28.518   4.800  1.00  0.00     0.081 A 
ATOM     82  CD2 TRP     9      -9.839 -27.532   5.632  1.00  0.00     0.015 A 
ATOM     83  CZ2 TRP     9     -10.654 -29.770   5.331  1.00  0.00     0.019 A 
ATOM     84  CE3 TRP     9      -9.652 -27.771   6.985  1.00  0.00     0.001 A 
ATOM     85  CZ3 TRP     9      -9.973 -29.014   7.519  1.00  0.00     0.000 A 
ATOM     86  CH2 TRP     9     -10.456 -30.017   6.681  1.00  0.00     0.002 A 
ENDBRANCH  77  78
ENDBRANCH  76  77
BRANCH  76  87
ATOM     87  C   TRP     9      -9.459 -22.942   3.832  1.00  0.00     0.275 C 
ATOM     88  O   TRP     9     -10.443 -23.154   3.129  1.00  0.00    -0.268 OA
ATOM     89  N   GLY    10      -9.099 -21.718   4.216  1.00  0.00    -0.226 NA
BRANCH  89  90
ATOM     90  CA  GLY    10      -9.792 -20.470   3.797  1.00  0.00     0.218 C 
BRANCH  90  91
ATOM     91  C   GLY    10     -10.363 -19.594   4.925  1.00  0.00     0.277 C 
ATOM     92  N   CYS    11     -10.021 -18.308   4.867  1.00  0.00    -0.228 NA
ATOM     93  O   GLY    10     -10.935 -20.104   5.881  1.00  0.00    -0.268 OA
BRANCH  92  94
ATOM     94  CA  CYS    11     -10.442 -17.241   5.802  1.00  0.00     0.198 C 
BRANCH  94  95
ATOM     95  C   CYS    11     -11.112 -16.122   4.980  1.00  0.00     0.275 C 
ATOM     96  O   CYS    11     -11.111 -16.199   3.757  1.00  0.00    -0.268 OA
ATOM     97  N   GLY    12     -11.474 -15.041   5.656  1.00  0.00    -0.225 NA
BRANCH  97  98
ATOM     98  CA  GLY    12     -12.111 -13.876   5.023  1.00  0.00     0.226 C 
BRANCH  98  99
ATOM     99  C   GLY    12     -11.659 -12.610   5.789  1.00  0.00     0.211 C 
ATOM    100  O1  GLY    12     -11.796 -11.512   5.192  1.00  0.00    -0.646 OA
ATOM    101  O2  GLY    12     -11.228 -12.756   6.947  1.00  0.00    -0.646 OA
ENDBRANCH  98  99
ENDBRANCH  97  98
ENDBRANCH  94  95
BRANCH  94 102
ATOM    102  CB  CYS    11      -9.219 -16.599   6.452  1.00  0.00     0.103 C 
ATOM    103  SG  CYS    11      -8.734 -17.262   8.092  1.00  0.00    -0.080 SA
ENDBRANCH  94 102
ENDBRANCH  92  94
ENDBRANCH  90  91
ENDBRANCH  89  90
ENDBRANCH  76  87
ENDBRANCH  74  76
ENDBRANCH  65  73
ENDBRANCH  63  65
ENDBRANCH  61  62
BRANCH  61 104
ATOM    104  CB  ASN     7      -1.794 -25.513   2.550  1.00  0.00     0.126 C 
BRANCH 104 105
ATOM    105  CG  ASN     7      -1.870 -26.901   3.214  1.00  0.00     0.276 C 
ATOM    106  ND2 ASN     7      -3.068 -27.307   3.565  1.00  0.00    -0.107 N 
ATOM    107  OD1 ASN     7      -0.903 -27.563   3.569  1.00  0.00    -0.269 OA
ENDBRANCH 104 105
ENDBRANCH  61 104
ENDBRANCH  59  61
ENDBRANCH   1  58
TORSDOF 42
ENDMDL
MODEL 7
REMARK VINA RESULT:      -3.7     20.412     27.601
REMARK WARNING: 32 MAX_TORS EXCEEDED!!!
REMARK  42 active torsions:
REMARK  status: ('A' for Active; 'I' for Inactive)
REMARK    1  A    between atoms: CA_2  and  CB_3 
REMARK    2  A    between atoms: CA_2  and  C_11 
REMARK    3  A    between atoms: CB_3  and  CG_4 
REMARK       I    between atoms: C_11  and  N_13 
REMARK    4  A    between atoms: N_13  and  CA_14 
REMARK    5  A    between atoms: CA_14  and  CB_15 
REMARK    6  A    between atoms: CA_14  and  C_19 
REMARK    7  A    between atoms: CB_15  and  CG_16 
REMARK       I    between atoms: C_19  and  N_21 
REMARK    8  A    between atoms: CA_22  and  C_26 
REMARK       I    between atoms: C_26  and  N_28 
REMARK    9  A    between atoms: N_28  and  CA_29 
REMARK   10  A    between atoms: CA_29  and  C_35 
REMARK   11  A    between atoms: CA_29  and  CB_30 
REMARK   12  A    between atoms: CB_30  and  CG_31 
REMARK   13  A    between atoms: CG_31  and  CD_32 
REMARK       I    between atoms: C_35  and  N_37 
REMARK   14  A    between atoms: N_37  and  CA_38 
REMARK   15  A    between atoms: CA_38  and  CB_39 
REMARK   16  A    between atoms: CA_38  and  C_47 
REMARK   17  A    between atoms: CB_39  and  CG_40 
REMARK       I    between atoms: C_47  and  N_49 
REMARK   18  A    between atoms: N_49  and  CA_50 
REMARK   19  A    between atoms: CA_50  and  CB_51 
REMARK   20  A    between atoms: CA_50  and  C_58 
REMARK   21  A    between atoms: CB_51  and  CG_52 
REMARK   22  A    between atoms: CG_52  and  CD_53 
REMARK   23  A    between atoms: CD_53  and  NE_54 
REMARK       I    between atoms: C_58  and  N_60 
REMARK   24  A    between atoms: N_60  and  CA_61 
REMARK   25  A    between atoms: CA_61  and  C_66 
REMARK   26  A    between atoms: CA_61  and  CB_62 
REMARK   27  A    between atoms: CB_62  and  CG_63 
REMARK       I    between atoms: C_66  and  N_68 
REMARK   28  A    between atoms: N_68  and  CA_69 
REMARK   29  A    between atoms: CA_69  and  CB_70 
REMARK   30  A    between atoms: CA_69  and  C_77 
REMARK   31  A    between atoms: CB_70  and  CG_71 
REMARK       I    between atoms: C_77  and  N_79 
REMARK   32  A    between atoms: N_79  and  CA_80 
REMARK   33  A    between atoms: CA_80  and  CB_81 
REMARK   34  A    between atoms: CA_80  and  C_91 
REMARK   35  A    between atoms: CB_81  and  CG_82 
REMARK       I    between atoms: C_91  and  N_93 
REMARK   36  A    between atoms: N_93  and  CA_94 
REMARK   37  A    between atoms: CA_94  and  C_95 
REMARK       I    between atoms: C_95  and  N_97 
REMARK   38  A    between atoms: N_97  and  CA_98 
REMARK   39  A    between atoms: CA_98  and  C_101 
REMARK   40  A    between atoms: CA_98  and  CB_99 
REMARK       I    between atoms: C_101  and  N_103 
REMARK   41  A    between atoms: N_103  and  CA_104 
REMARK   42  A    between atoms: CA_104  and  C_105 
ROOT
ATOM      1  CA  ARG     6      17.999  -5.864   6.230  1.00  0.00     0.186 C 
ENDROOT
BRANCH   1   2
ATOM      2  N   ARG     6      16.830  -4.960   6.328  1.00  0.00    -0.229 NA
ATOM      3  C   TYR     5      16.398  -4.230   5.292  1.00  0.00     0.275 C 
ATOM      4  O   TYR     5      16.927  -4.285   4.181  1.00  0.00    -0.268 OA
BRANCH   3   5
ATOM      5  CA  TYR     5      15.129  -3.389   5.507  1.00  0.00     0.191 C 
BRANCH   5   6
ATOM      6  N   TYR     5      15.255  -2.394   6.603  1.00  0.00    -0.228 NA
ATOM      7  C   GLU     4      16.073  -1.330   6.537  1.00  0.00     0.274 C 
ATOM      8  O   GLU     4      16.672  -1.020   5.515  1.00  0.00    -0.268 OA
BRANCH   7   9
ATOM      9  CA  GLU     4      15.973  -0.326   7.704  1.00  0.00     0.187 C 
BRANCH   9  10
ATOM     10  CB  GLU     4      16.417  -1.001   9.012  1.00  0.00     0.045 C 
BRANCH  10  11
ATOM     11  CG  GLU     4      17.920  -0.904   9.354  1.00  0.00     0.100 C 
BRANCH  11  12
ATOM     12  CD  GLU     4      18.732  -2.144   8.981  1.00  0.00     0.185 C 
ATOM     13  OE1 GLU     4      19.574  -2.026   8.052  1.00  0.00    -0.647 OA
ATOM     14  OE2 GLU     4      18.221  -3.250   9.248  1.00  0.00    -0.647 OA
ENDBRANCH  11  12
ENDBRANCH  10  11
ENDBRANCH   9  10
BRANCH   9  15
ATOM     15  N   GLU     4      14.613   0.215   7.891  1.00  0.00    -0.229 NA
ATOM     16  C   PRO     3      14.149   0.932   8.908  1.00  0.00     0.272 C 
ATOM     17  O   PRO     3      14.874   1.571   9.672  1.00  0.00    -0.269 OA
BRANCH  16  18
ATOM     18  CA  PRO     3      12.678   1.341   8.801  1.00  0.00     0.165 C 
ATOM     19  N   PRO     3      12.388   2.348   7.758  1.00  0.00    -0.312 N 
ATOM     20  CD  PRO     3      11.116   2.004   7.072  1.00  0.00     0.105 C 
ATOM     21  C   ASP     2      13.098   3.478   7.585  1.00  0.00     0.257 C 
ATOM     22  CG  PRO     3      10.536   0.850   7.905  1.00  0.00     0.027 C 
ATOM     23  CB  PRO     3      11.770   0.157   8.475  1.00  0.00     0.034 C 
ATOM     24  O   ASP     2      13.918   3.839   8.443  1.00  0.00    -0.270 OA
BRANCH  21  25
ATOM     25  CA  ASP     2      12.651   4.501   6.517  1.00  0.00     0.195 C 
BRANCH  25  26
ATOM     26  CB  ASP     2      13.755   5.034   5.568  1.00  0.00     0.132 C 
BRANCH  26  27
ATOM     27  CG  ASP     2      13.666   4.341   4.196  1.00  0.00     0.188 C 
ATOM     28  OD2 ASP     2      14.039   5.033   3.214  1.00  0.00    -0.647 OA
ATOM     29  OD1 ASP     2      12.767   3.474   4.059  1.00  0.00    -0.647 OA
ENDBRANCH  26  27
ENDBRANCH  25  26
BRANCH  25  30
ATOM     30  N   ASP     2      12.126   5.738   7.121  1.00  0.00    -0.228 NA
ATOM     31  C   TYR     1      10.889   5.964   7.496  1.00  0.00     0.289 C 
ATOM     32  O   TYR     1       9.951   5.162   7.550  1.00  0.00    -0.268 OA
BRANCH  31  33
ATOM     33  CA  TYR     1      10.665   7.425   7.875  1.00  0.00     0.385 C 
ATOM     34  N   TYR     1      10.271   7.468   9.293  1.00  0.00     0.626 N 
BRANCH  33  35
ATOM     35  CB  TYR     1      11.972   8.170   7.610  1.00  0.00     0.075 C 
BRANCH  35  36
ATOM     36  CG  TYR     1      11.812   9.324   6.608  1.00  0.00    -0.019 A 
ATOM     37  CD2 TYR     1      11.586   9.086   5.261  1.00  0.00    -0.002 A 
ATOM     38  CE2 TYR     1      11.311  10.141   4.404  1.00  0.00     0.027 A 
ATOM     39  CZ  TYR     1      11.273  11.439   4.912  1.00  0.00     0.131 A 
ATOM     40  CE1 TYR     1      11.541  11.673   6.249  1.00  0.00     0.027 A 
ATOM     41  OH  TYR     1      10.827  12.454   4.145  1.00  0.00    -0.190 OA
ATOM     42  CD1 TYR     1      11.815  10.618   7.106  1.00  0.00    -0.002 A 
ENDBRANCH  35  36
ENDBRANCH  33  35
ENDBRANCH  31  33
ENDBRANCH  25  30
ENDBRANCH  21  25
ENDBRANCH  16  18
ENDBRANCH   9  15
ENDBRANCH   7   9
ENDBRANCH   5   6
BRANCH   5  43
ATOM     43  CB  TYR     5      14.706  -2.689   4.204  1.00  0.00     0.060 C 
BRANCH  43  44
ATOM     44  CG  TYR     5      13.214  -2.316   4.200  1.00  0.00    -0.020 A 
ATOM     45  CD2 TYR     5      12.797  -1.064   4.635  1.00  0.00    -0.002 A 
ATOM     46  CE2 TYR     5      11.445  -0.733   4.620  1.00  0.00     0.027 A 
ATOM     47  CZ  TYR     5      10.511  -1.654   4.171  1.00  0.00     0.131 A 
ATOM     48  CE1 TYR     5      10.922  -2.902   3.718  1.00  0.00     0.027 A 
ATOM     49  OH  TYR     5       9.190  -1.393   4.284  1.00  0.00    -0.190 OA
ATOM     50  CD1 TYR     5      12.276  -3.235   3.742  1.00  0.00    -0.002 A 
ENDBRANCH  43  44
ENDBRANCH   5  43
ENDBRANCH   3   5
ENDBRANCH   1   2
BRANCH   1  51
ATOM     51  CB  ARG     6      19.307  -5.188   6.627  1.00  0.00     0.036 C 
BRANCH  51  52
ATOM     52  CG  ARG     6      20.184  -4.796   5.435  1.00  0.00     0.029 C 
BRANCH  52  53
ATOM     53  CD  ARG     6      21.566  -5.430   5.562  1.00  0.00     0.145 C 
BRANCH  53  54
ATOM     54  NE  ARG     6      21.579  -6.466   6.607  1.00  0.00    -0.083 NA
ATOM     55  CZ  ARG     6      22.365  -6.464   7.700  1.00  0.00     0.782 C 
ATOM     56  NH2 ARG     6      22.355  -7.498   8.545  1.00  0.00     0.063 N 
ATOM     57  NH1 ARG     6      23.224  -5.472   7.907  1.00  0.00     0.063 N 
ENDBRANCH  53  54
ENDBRANCH  52  53
ENDBRANCH  51  52
ENDBRANCH   1  51
BRANCH   1  58
ATOM     58  C   ARG     6      17.858  -7.104   7.122  1.00  0.00     0.274 C 
ATOM     59  N   ASN     7      16.868  -7.934   6.803  1.00  0.00    -0.228 NA
ATOM     60  O   ARG     6      18.641  -7.263   8.060  1.00  0.00    -0.268 OA
BRANCH  59  61
ATOM     61  CA  ASN     7      16.638  -9.226   7.483  1.00  0.00     0.196 C 
BRANCH  61  62
ATOM     62  C   ASN     7      16.901 -10.417   6.542  1.00  0.00     0.275 C 
ATOM     63  N   PHE     8      16.505 -11.626   6.967  1.00  0.00    -0.228 NA
ATOM     64  O   ASN     7      17.077 -10.165   5.365  1.00  0.00    -0.268 OA
BRANCH  63  65
ATOM     65  CA  PHE     8      16.592 -12.875   6.172  1.00  0.00     0.191 C 
BRANCH  65  66
ATOM     66  CB  PHE     8      17.653 -13.780   6.813  1.00  0.00     0.060 C 
BRANCH  66  67
ATOM     67  CG  PHE     8      19.022 -13.755   6.109  1.00  0.00    -0.020 A 
ATOM     68  CD1 PHE     8      20.186 -13.674   6.860  1.00  0.00    -0.004 A 
ATOM     69  CE1 PHE     8      21.419 -13.547   6.220  1.00  0.00    -0.000 A 
ATOM     70  CZ  PHE     8      21.475 -13.519   4.836  1.00  0.00    -0.000 A 
ATOM     71  CE2 PHE     8      20.311 -13.614   4.080  1.00  0.00    -0.000 A 
ATOM     72  CD2 PHE     8      19.078 -13.740   4.721  1.00  0.00    -0.004 A 
ENDBRANCH  66  67
ENDBRANCH  65  66
BRANCH  65  73
ATOM     73  C   PHE     8      15.251 -13.618   5.974  1.00  0.00     0.275 C 
ATOM     74  N   TRP     9      15.284 -14.708   5.205  1.00  0.00    -0.228 NA
ATOM     75  O   PHE     8      14.182 -13.092   6.295  1.00  0.00    -0.268 OA
BRANCH  74  76
ATOM     76  CA  TRP     9      14.100 -15.584   5.030  1.00  0.00     0.191 C 
BRANCH  76  77
ATOM     77  CB  TRP     9      13.700 -15.588   3.546  1.00  0.00     0.062 C 
BRANCH  77  78
ATOM     78  CG  TRP     9      12.360 -14.902   3.282  1.00  0.00     0.001 A 
ATOM     79  CD1 TRP     9      12.075 -13.626   3.521  1.00  0.00     0.095 A 
ATOM     80  NE1 TRP     9      10.763 -13.439   3.459  1.00  0.00    -0.244 NA
ATOM     81  CE2 TRP     9      10.167 -14.584   3.159  1.00  0.00     0.081 A 
ATOM     82  CD2 TRP     9      11.152 -15.553   3.051  1.00  0.00     0.015 A 
ATOM     83  CZ2 TRP     9       8.826 -14.956   3.062  1.00  0.00     0.019 A 
ATOM     84  CE3 TRP     9      10.819 -16.886   2.862  1.00  0.00     0.001 A 
ATOM     85  CZ3 TRP     9       9.483 -17.261   2.778  1.00  0.00     0.000 A 
ATOM     86  CH2 TRP     9       8.490 -16.286   2.860  1.00  0.00     0.002 A 
ENDBRANCH  77  78
ENDBRANCH  76  77
BRANCH  76  87
ATOM     87  C   TRP     9      14.279 -17.020   5.576  1.00  0.00     0.275 C 
ATOM     88  O   TRP     9      15.214 -17.299   6.319  1.00  0.00    -0.268 OA
ATOM     89  N   GLY    10      13.314 -17.888   5.274  1.00  0.00    -0.226 NA
BRANCH  89  90
ATOM     90  CA  GLY    10      13.283 -19.301   5.740  1.00  0.00     0.218 C 
BRANCH  90  91
ATOM     91  C   GLY    10      13.850 -20.352   4.771  1.00  0.00     0.277 C 
ATOM     92  N   CYS    11      15.171 -20.512   4.826  1.00  0.00    -0.228 NA
ATOM     93  O   GLY    10      13.138 -20.854   3.910  1.00  0.00    -0.268 OA
BRANCH  92  94
ATOM     94  CA  CYS    11      15.977 -21.464   4.028  1.00  0.00     0.198 C 
BRANCH  94  95
ATOM     95  C   CYS    11      16.619 -22.476   4.998  1.00  0.00     0.275 C 
ATOM     96  O   CYS    11      15.903 -23.075   5.793  1.00  0.00    -0.268 OA
ATOM     97  N   GLY    12      17.943 -22.485   5.038  1.00  0.00    -0.225 NA
BRANCH  97  98
ATOM     98  CA  GLY    12      18.713 -23.377   5.919  1.00  0.00     0.226 C 
BRANCH  98  99
ATOM     99  C   GLY    12      19.916 -22.580   6.473  1.00  0.00     0.211 C 
ATOM    100  O1  GLY    12      20.953 -23.238   6.742  1.00  0.00    -0.646 OA
ATOM    101  O2  GLY    12      19.794 -21.346   6.581  1.00  0.00    -0.646 OA
ENDBRANCH  98  99
ENDBRANCH  97  98
ENDBRANCH  94  95
BRANCH  94 102
ATOM    102  CB  CYS    11      17.143 -20.736   3.362  1.00  0.00     0.103 C 
ATOM    103  SG  CYS    11      17.040 -18.905   3.329  1.00  0.00    -0.080 SA
ENDBRANCH  94 102
ENDBRANCH  92  94
ENDBRANCH  90  91
ENDBRANCH  89  90
ENDBRANCH  76  87
ENDBRANCH  74  76
ENDBRANCH  65  73
ENDBRANCH  63  65
ENDBRANCH  61  62
BRANCH  61 104
ATOM    104  CB  ASN     7      15.224  -9.299   8.074  1.00  0.00     0.126 C 
BRANCH 104 105
ATOM    105  CG  ASN     7      14.087  -9.274   7.036  1.00  0.00     0.276 C 
ATOM    106  ND2 ASN     7      13.089 -10.099   7.254  1.00  0.00    -0.107 N 
ATOM    107  OD1 ASN     7      14.121  -8.671   5.971  1.00  0.00    -0.269 OA
ENDBRANCH 104 105
ENDBRANCH  61 104
ENDBRANCH  59  61
ENDBRANCH   1  58
TORSDOF 42
ENDMDL
MODEL 8
REMARK VINA RESULT:      -3.7     26.656     39.270
REMARK WARNING: 32 MAX_TORS EXCEEDED!!!
REMARK  42 active torsions:
REMARK  status: ('A' for Active; 'I' for Inactive)
REMARK    1  A    between atoms: CA_2  and  CB_3 
REMARK    2  A    between atoms: CA_2  and  C_11 
REMARK    3  A    between atoms: CB_3  and  CG_4 
REMARK       I    between atoms: C_11  and  N_13 
REMARK    4  A    between atoms: N_13  and  CA_14 
REMARK    5  A    between atoms: CA_14  and  CB_15 
REMARK    6  A    between atoms: CA_14  and  C_19 
REMARK    7  A    between atoms: CB_15  and  CG_16 
REMARK       I    between atoms: C_19  and  N_21 
REMARK    8  A    between atoms: CA_22  and  C_26 
REMARK       I    between atoms: C_26  and  N_28 
REMARK    9  A    between atoms: N_28  and  CA_29 
REMARK   10  A    between atoms: CA_29  and  C_35 
REMARK   11  A    between atoms: CA_29  and  CB_30 
REMARK   12  A    between atoms: CB_30  and  CG_31 
REMARK   13  A    between atoms: CG_31  and  CD_32 
REMARK       I    between atoms: C_35  and  N_37 
REMARK   14  A    between atoms: N_37  and  CA_38 
REMARK   15  A    between atoms: CA_38  and  CB_39 
REMARK   16  A    between atoms: CA_38  and  C_47 
REMARK   17  A    between atoms: CB_39  and  CG_40 
REMARK       I    between atoms: C_47  and  N_49 
REMARK   18  A    between atoms: N_49  and  CA_50 
REMARK   19  A    between atoms: CA_50  and  CB_51 
REMARK   20  A    between atoms: CA_50  and  C_58 
REMARK   21  A    between atoms: CB_51  and  CG_52 
REMARK   22  A    between atoms: CG_52  and  CD_53 
REMARK   23  A    between atoms: CD_53  and  NE_54 
REMARK       I    between atoms: C_58  and  N_60 
REMARK   24  A    between atoms: N_60  and  CA_61 
REMARK   25  A    between atoms: CA_61  and  C_66 
REMARK   26  A    between atoms: CA_61  and  CB_62 
REMARK   27  A    between atoms: CB_62  and  CG_63 
REMARK       I    between atoms: C_66  and  N_68 
REMARK   28  A    between atoms: N_68  and  CA_69 
REMARK   29  A    between atoms: CA_69  and  CB_70 
REMARK   30  A    between atoms: CA_69  and  C_77 
REMARK   31  A    between atoms: CB_70  and  CG_71 
REMARK       I    between atoms: C_77  and  N_79 
REMARK   32  A    between atoms: N_79  and  CA_80 
REMARK   33  A    between atoms: CA_80  and  CB_81 
REMARK   34  A    between atoms: CA_80  and  C_91 
REMARK   35  A    between atoms: CB_81  and  CG_82 
REMARK       I    between atoms: C_91  and  N_93 
REMARK   36  A    between atoms: N_93  and  CA_94 
REMARK   37  A    between atoms: CA_94  and  C_95 
REMARK       I    between atoms: C_95  and  N_97 
REMARK   38  A    between atoms: N_97  and  CA_98 
REMARK   39  A    between atoms: CA_98  and  C_101 
REMARK   40  A    between atoms: CA_98  and  CB_99 
REMARK       I    between atoms: C_101  and  N_103 
REMARK   41  A    between atoms: N_103  and  CA_104 
REMARK   42  A    between atoms: CA_104  and  C_105 
ROOT
ATOM      1  CA  ARG     6      11.955   5.445   7.605  1.00  0.00     0.186 C 
ENDROOT
BRANCH   1   2
ATOM      2  N   ARG     6      12.200   4.634   6.389  1.00  0.00    -0.229 NA
ATOM      3  C   TYR     5      12.421   3.314   6.440  1.00  0.00     0.275 C 
ATOM      4  O   TYR     5      12.406   2.683   7.498  1.00  0.00    -0.268 OA
BRANCH   3   5
ATOM      5  CA  TYR     5      12.587   2.579   5.100  1.00  0.00     0.191 C 
BRANCH   5   6
ATOM      6  N   TYR     5      13.148   1.210   5.239  1.00  0.00    -0.228 NA
ATOM      7  C   GLU     4      14.377   0.874   4.815  1.00  0.00     0.274 C 
ATOM      8  O   GLU     4      15.185   1.700   4.409  1.00  0.00    -0.268 OA
BRANCH   7   9
ATOM      9  CA  GLU     4      14.848  -0.552   5.168  1.00  0.00     0.187 C 
BRANCH   9  10
ATOM     10  CB  GLU     4      13.631  -1.456   5.422  1.00  0.00     0.045 C 
BRANCH  10  11
ATOM     11  CG  GLU     4      13.254  -2.430   4.284  1.00  0.00     0.100 C 
BRANCH  11  12
ATOM     12  CD  GLU     4      14.416  -3.281   3.774  1.00  0.00     0.185 C 
ATOM     13  OE1 GLU     4      14.412  -3.593   2.554  1.00  0.00    -0.647 OA
ATOM     14  OE2 GLU     4      15.007  -3.986   4.616  1.00  0.00    -0.647 OA
ENDBRANCH  11  12
ENDBRANCH  10  11
ENDBRANCH   9  10
BRANCH   9  15
ATOM     15  N   GLU     4      15.725  -0.599   6.354  1.00  0.00    -0.229 NA
ATOM     16  C   PRO     3      15.414  -0.327   7.615  1.00  0.00     0.272 C 
ATOM     17  O   PRO     3      14.260  -0.353   8.048  1.00  0.00    -0.269 OA
BRANCH  16  18
ATOM     18  CA  PRO     3      16.561  -0.470   8.617  1.00  0.00     0.165 C 
ATOM     19  N   PRO     3      17.462  -1.617   8.370  1.00  0.00    -0.312 N 
ATOM     20  CD  PRO     3      18.869  -1.208   8.616  1.00  0.00     0.105 C 
ATOM     21  C   ASP     2      17.035  -2.867   8.118  1.00  0.00     0.257 C 
ATOM     22  CG  PRO     3      18.754   0.192   9.239  1.00  0.00     0.027 C 
ATOM     23  CB  PRO     3      17.472   0.755   8.632  1.00  0.00     0.034 C 
ATOM     24  O   ASP     2      15.845  -3.170   8.292  1.00  0.00    -0.270 OA
BRANCH  21  25
ATOM     25  CA  ASP     2      18.068  -4.006   7.961  1.00  0.00     0.195 C 
BRANCH  25  26
ATOM     26  CB  ASP     2      18.607  -4.255   6.529  1.00  0.00     0.132 C 
BRANCH  26  27
ATOM     27  CG  ASP     2      19.945  -3.521   6.323  1.00  0.00     0.188 C 
ATOM     28  OD2 ASP     2      19.995  -2.756   5.327  1.00  0.00    -0.647 OA
ATOM     29  OD1 ASP     2      20.979  -4.110   6.726  1.00  0.00    -0.647 OA
ENDBRANCH  26  27
ENDBRANCH  25  26
BRANCH  25  30
ATOM     30  N   ASP     2      17.504  -5.319   8.321  1.00  0.00    -0.228 NA
ATOM     31  C   TYR     1      18.174  -6.394   8.664  1.00  0.00     0.289 C 
ATOM     32  O   TYR     1      19.385  -6.496   8.887  1.00  0.00    -0.268 OA
BRANCH  31  33
ATOM     33  CA  TYR     1      17.275  -7.623   8.755  1.00  0.00     0.385 C 
ATOM     34  N   TYR     1      15.957  -7.182   9.241  1.00  0.00     0.626 N 
BRANCH  33  35
ATOM     35  CB  TYR     1      17.207  -8.241   7.360  1.00  0.00     0.075 C 
BRANCH  35  36
ATOM     36  CG  TYR     1      16.049  -9.238   7.201  1.00  0.00    -0.019 A 
ATOM     37  CD2 TYR     1      16.075 -10.480   7.817  1.00  0.00    -0.002 A 
ATOM     38  CE2 TYR     1      14.962 -11.306   7.769  1.00  0.00     0.027 A 
ATOM     39  CZ  TYR     1      13.823 -10.873   7.090  1.00  0.00     0.131 A 
ATOM     40  CE1 TYR     1      13.819  -9.650   6.443  1.00  0.00     0.027 A 
ATOM     41  OH  TYR     1      12.672 -11.568   7.186  1.00  0.00    -0.190 OA
ATOM     42  CD1 TYR     1      14.932  -8.825   6.491  1.00  0.00    -0.002 A 
ENDBRANCH  35  36
ENDBRANCH  33  35
ENDBRANCH  31  33
ENDBRANCH  25  30
ENDBRANCH  21  25
ENDBRANCH  16  18
ENDBRANCH   9  15
ENDBRANCH   7   9
ENDBRANCH   5   6
BRANCH   5  43
ATOM     43  CB  TYR     5      11.255   2.528   4.332  1.00  0.00     0.060 C 
BRANCH  43  44
ATOM     44  CG  TYR     5      10.507   1.202   4.550  1.00  0.00    -0.020 A 
ATOM     45  CD2 TYR     5       9.980   0.884   5.795  1.00  0.00    -0.002 A 
ATOM     46  CE2 TYR     5       9.298  -0.315   5.980  1.00  0.00     0.027 A 
ATOM     47  CZ  TYR     5       9.143  -1.195   4.921  1.00  0.00     0.131 A 
ATOM     48  CE1 TYR     5       9.651  -0.876   3.667  1.00  0.00     0.027 A 
ATOM     49  OH  TYR     5       8.606  -2.418   5.125  1.00  0.00    -0.190 OA
ATOM     50  CD1 TYR     5      10.342   0.323   3.486  1.00  0.00    -0.002 A 
ENDBRANCH  43  44
ENDBRANCH   5  43
ENDBRANCH   3   5
ENDBRANCH   1   2
BRANCH   1  51
ATOM     51  CB  ARG     6      13.230   6.058   8.176  1.00  0.00     0.036 C 
BRANCH  51  52
ATOM     52  CG  ARG     6      14.506   5.589   7.473  1.00  0.00     0.029 C 
BRANCH  52  53
ATOM     53  CD  ARG     6      14.981   6.643   6.476  1.00  0.00     0.145 C 
BRANCH  53  54
ATOM     54  NE  ARG     6      15.243   6.042   5.158  1.00  0.00    -0.083 NA
ATOM     55  CZ  ARG     6      16.446   5.636   4.710  1.00  0.00     0.782 C 
ATOM     56  NH2 ARG     6      16.587   5.181   3.463  1.00  0.00     0.063 N 
ATOM     57  NH1 ARG     6      17.525   5.763   5.475  1.00  0.00     0.063 N 
ENDBRANCH  53  54
ENDBRANCH  52  53
ENDBRANCH  51  52
ENDBRANCH   1  51
BRANCH   1  58
ATOM     58  C   ARG     6      10.986   6.606   7.349  1.00  0.00     0.274 C 
ATOM     59  N   ASN     7      11.550   7.779   7.075  1.00  0.00    -0.228 NA
ATOM     60  O   ARG     6       9.773   6.402   7.414  1.00  0.00    -0.268 OA
BRANCH  59  61
ATOM     61  CA  ASN     7      10.782   8.986   6.706  1.00  0.00     0.196 C 
BRANCH  61  62
ATOM     62  C   ASN     7      11.333   9.639   5.423  1.00  0.00     0.275 C 
ATOM     63  N   PHE     8      11.276  10.977   5.350  1.00  0.00    -0.228 NA
ATOM     64  O   ASN     7      12.109   8.982   4.757  1.00  0.00    -0.268 OA
BRANCH  63  65
ATOM     65  CA  PHE     8      11.830  11.791   4.241  1.00  0.00     0.191 C 
BRANCH  65  66
ATOM     66  CB  PHE     8      10.762  12.804   3.807  1.00  0.00     0.060 C 
BRANCH  66  67
ATOM     67  CG  PHE     8      10.338  13.793   4.910  1.00  0.00    -0.020 A 
ATOM     68  CD1 PHE     8      10.872  15.074   4.933  1.00  0.00    -0.004 A 
ATOM     69  CE1 PHE     8      10.566  15.934   5.989  1.00  0.00    -0.000 A 
ATOM     70  CZ  PHE     8       9.720  15.508   6.999  1.00  0.00    -0.000 A 
ATOM     71  CE2 PHE     8       9.173  14.229   6.970  1.00  0.00    -0.000 A 
ATOM     72  CD2 PHE     8       9.479  13.370   5.915  1.00  0.00    -0.004 A 
ENDBRANCH  66  67
ENDBRANCH  65  66
BRANCH  65  73
ATOM     73  C   PHE     8      13.180  12.479   4.547  1.00  0.00     0.275 C 
ATOM     74  N   TRP     9      13.748  13.145   3.541  1.00  0.00    -0.228 NA
ATOM     75  O   PHE     8      13.808  12.212   5.575  1.00  0.00    -0.268 OA
BRANCH  74  76
ATOM     76  CA  TRP     9      14.978  13.953   3.727  1.00  0.00     0.191 C 
BRANCH  76  77
ATOM     77  CB  TRP     9      15.931  13.684   2.551  1.00  0.00     0.062 C 
BRANCH  77  78
ATOM     78  CG  TRP     9      17.091  12.758   2.915  1.00  0.00     0.001 A 
ATOM     79  CD1 TRP     9      18.373  13.105   2.991  1.00  0.00     0.095 A 
ATOM     80  NE1 TRP     9      19.129  12.016   3.038  1.00  0.00    -0.244 NA
ATOM     81  CE2 TRP     9      18.358  10.939   3.013  1.00  0.00     0.081 A 
ATOM     82  CD2 TRP     9      17.043  11.368   2.921  1.00  0.00     0.015 A 
ATOM     83  CZ2 TRP     9      18.640   9.574   2.952  1.00  0.00     0.019 A 
ATOM     84  CE3 TRP     9      16.009  10.459   2.754  1.00  0.00     0.001 A 
ATOM     85  CZ3 TRP     9      16.289   9.098   2.680  1.00  0.00     0.000 A 
ATOM     86  CH2 TRP     9      17.607   8.661   2.799  1.00  0.00     0.002 A 
ENDBRANCH  77  78
ENDBRANCH  76  77
BRANCH  76  87
ATOM     87  C   TRP     9      14.729  15.466   3.923  1.00  0.00     0.275 C 
ATOM     88  O   TRP     9      13.637  15.963   3.666  1.00  0.00    -0.268 OA
ATOM     89  N   GLY    10      15.724  16.160   4.474  1.00  0.00    -0.226 NA
BRANCH  89  90
ATOM     90  CA  GLY    10      15.661  17.615   4.784  1.00  0.00     0.218 C 
BRANCH  90  91
ATOM     91  C   GLY    10      15.533  17.992   6.268  1.00  0.00     0.277 C 
ATOM     92  N   CYS    11      14.313  18.368   6.651  1.00  0.00    -0.228 NA
ATOM     93  O   GLY    10      16.530  18.096   6.973  1.00  0.00    -0.268 OA
BRANCH  92  94
ATOM     94  CA  CYS    11      13.899  18.761   8.017  1.00  0.00     0.198 C 
BRANCH  94  95
ATOM     95  C   CYS    11      13.927  17.502   8.905  1.00  0.00     0.275 C 
ATOM     96  O   CYS    11      14.881  17.321   9.654  1.00  0.00    -0.268 OA
ATOM     97  N   GLY    12      13.000  16.590   8.651  1.00  0.00    -0.225 NA
BRANCH  97  98
ATOM     98  CA  GLY    12      12.895  15.325   9.395  1.00  0.00     0.226 C 
BRANCH  98  99
ATOM     99  C   GLY    12      13.330  14.179   8.452  1.00  0.00     0.211 C 
ATOM    100  O1  GLY    12      14.563  13.940   8.386  1.00  0.00    -0.646 OA
ATOM    101  O2  GLY    12      12.439  13.550   7.852  1.00  0.00    -0.646 OA
ENDBRANCH  98  99
ENDBRANCH  97  98
ENDBRANCH  94  95
BRANCH  94 102
ATOM    102  CB  CYS    11      12.446  19.230   8.011  1.00  0.00     0.103 C 
ATOM    103  SG  CYS    11      11.962  20.378   9.357  1.00  0.00    -0.080 SA
ENDBRANCH  94 102
ENDBRANCH  92  94
ENDBRANCH  90  91
ENDBRANCH  89  90
ENDBRANCH  76  87
ENDBRANCH  74  76
ENDBRANCH  65  73
ENDBRANCH  63  65
ENDBRANCH  61  62
BRANCH  61 104
ATOM    104  CB  ASN     7      10.745   9.996   7.860  1.00  0.00     0.126 C 
BRANCH 104 105
ATOM    105  CG  ASN     7       9.384  10.119   8.569  1.00  0.00     0.276 C 
ATOM    106  ND2 ASN     7       8.897   9.011   9.079  1.00  0.00    -0.107 N 
ATOM    107  OD1 ASN     7       8.671  11.115   8.554  1.00  0.00    -0.269 OA
ENDBRANCH 104 105
ENDBRANCH  61 104
ENDBRANCH  59  61
ENDBRANCH   1  58
TORSDOF 42
ENDMDL
MODEL 9
REMARK VINA RESULT:      -3.6     19.892     26.916
REMARK WARNING: 32 MAX_TORS EXCEEDED!!!
REMARK  42 active torsions:
REMARK  status: ('A' for Active; 'I' for Inactive)
REMARK    1  A    between atoms: CA_2  and  CB_3 
REMARK    2  A    between atoms: CA_2  and  C_11 
REMARK    3  A    between atoms: CB_3  and  CG_4 
REMARK       I    between atoms: C_11  and  N_13 
REMARK    4  A    between atoms: N_13  and  CA_14 
REMARK    5  A    between atoms: CA_14  and  CB_15 
REMARK    6  A    between atoms: CA_14  and  C_19 
REMARK    7  A    between atoms: CB_15  and  CG_16 
REMARK       I    between atoms: C_19  and  N_21 
REMARK    8  A    between atoms: CA_22  and  C_26 
REMARK       I    between atoms: C_26  and  N_28 
REMARK    9  A    between atoms: N_28  and  CA_29 
REMARK   10  A    between atoms: CA_29  and  C_35 
REMARK   11  A    between atoms: CA_29  and  CB_30 
REMARK   12  A    between atoms: CB_30  and  CG_31 
REMARK   13  A    between atoms: CG_31  and  CD_32 
REMARK       I    between atoms: C_35  and  N_37 
REMARK   14  A    between atoms: N_37  and  CA_38 
REMARK   15  A    between atoms: CA_38  and  CB_39 
REMARK   16  A    between atoms: CA_38  and  C_47 
REMARK   17  A    between atoms: CB_39  and  CG_40 
REMARK       I    between atoms: C_47  and  N_49 
REMARK   18  A    between atoms: N_49  and  CA_50 
REMARK   19  A    between atoms: CA_50  and  CB_51 
REMARK   20  A    between atoms: CA_50  and  C_58 
REMARK   21  A    between atoms: CB_51  and  CG_52 
REMARK   22  A    between atoms: CG_52  and  CD_53 
REMARK   23  A    between atoms: CD_53  and  NE_54 
REMARK       I    between atoms: C_58  and  N_60 
REMARK   24  A    between atoms: N_60  and  CA_61 
REMARK   25  A    between atoms: CA_61  and  C_66 
REMARK   26  A    between atoms: CA_61  and  CB_62 
REMARK   27  A    between atoms: CB_62  and  CG_63 
REMARK       I    between atoms: C_66  and  N_68 
REMARK   28  A    between atoms: N_68  and  CA_69 
REMARK   29  A    between atoms: CA_69  and  CB_70 
REMARK   30  A    between atoms: CA_69  and  C_77 
REMARK   31  A    between atoms: CB_70  and  CG_71 
REMARK       I    between atoms: C_77  and  N_79 
REMARK   32  A    between atoms: N_79  and  CA_80 
REMARK   33  A    between atoms: CA_80  and  CB_81 
REMARK   34  A    between atoms: CA_80  and  C_91 
REMARK   35  A    between atoms: CB_81  and  CG_82 
REMARK       I    between atoms: C_91  and  N_93 
REMARK   36  A    between atoms: N_93  and  CA_94 
REMARK   37  A    between atoms: CA_94  and  C_95 
REMARK       I    between atoms: C_95  and  N_97 
REMARK   38  A    between atoms: N_97  and  CA_98 
REMARK   39  A    between atoms: CA_98  and  C_101 
REMARK   40  A    between atoms: CA_98  and  CB_99 
REMARK       I    between atoms: C_101  and  N_103 
REMARK   41  A    between atoms: N_103  and  CA_104 
REMARK   42  A    between atoms: CA_104  and  C_105 
ROOT
ATOM      1  CA  ARG     6      17.167  -6.043   5.973  1.00  0.00     0.186 C 
ENDROOT
BRANCH   1   2
ATOM      2  N   ARG     6      16.129  -4.996   6.114  1.00  0.00    -0.229 NA
ATOM      3  C   TYR     5      15.889  -4.089   5.158  1.00  0.00     0.275 C 
ATOM      4  O   TYR     5      16.495  -4.086   4.086  1.00  0.00    -0.268 OA
BRANCH   3   5
ATOM      5  CA  TYR     5      14.734  -3.104   5.400  1.00  0.00     0.191 C 
BRANCH   5   6
ATOM      6  N   TYR     5      15.004  -2.130   6.489  1.00  0.00    -0.228 NA
ATOM      7  C   GLU     4      16.007  -1.238   6.444  1.00  0.00     0.274 C 
ATOM      8  O   GLU     4      16.691  -1.064   5.443  1.00  0.00    -0.268 OA
BRANCH   7   9
ATOM      9  CA  GLU     4      16.054  -0.212   7.594  1.00  0.00     0.187 C 
BRANCH   9  10
ATOM     10  CB  GLU     4      16.676  -0.857   8.843  1.00  0.00     0.045 C 
BRANCH  10  11
ATOM     11  CG  GLU     4      18.217  -0.810   8.941  1.00  0.00     0.100 C 
BRANCH  11  12
ATOM     12  CD  GLU     4      18.921  -2.045   8.379  1.00  0.00     0.185 C 
ATOM     13  OE1 GLU     4      18.672  -3.151   8.927  1.00  0.00    -0.647 OA
ATOM     14  OE2 GLU     4      19.997  -1.853   7.779  1.00  0.00    -0.647 OA
ENDBRANCH  11  12
ENDBRANCH  10  11
ENDBRANCH   9  10
BRANCH   9  15
ATOM     15  N   GLU     4      14.726   0.322   7.952  1.00  0.00    -0.229 NA
ATOM     16  C   PRO     3      14.409   1.123   8.963  1.00  0.00     0.272 C 
ATOM     17  O   PRO     3      15.228   1.841   9.539  1.00  0.00    -0.269 OA
BRANCH  16  18
ATOM     18  CA  PRO     3      12.929   1.497   9.061  1.00  0.00     0.165 C 
ATOM     19  N   PRO     3      12.443   2.394   7.990  1.00  0.00    -0.312 N 
ATOM     20  CD  PRO     3      11.088   1.965   7.557  1.00  0.00     0.105 C 
ATOM     21  C   ASP     2      13.080   3.512   7.599  1.00  0.00     0.257 C 
ATOM     22  CG  PRO     3      10.686   0.889   8.578  1.00  0.00     0.027 C 
ATOM     23  CB  PRO     3      12.017   0.273   9.000  1.00  0.00     0.034 C 
ATOM     24  O   ASP     2      14.017   3.967   8.273  1.00  0.00    -0.270 OA
BRANCH  21  25
ATOM     25  CA  ASP     2      12.435   4.420   6.528  1.00  0.00     0.195 C 
BRANCH  25  26
ATOM     26  CB  ASP     2      13.341   4.837   5.341  1.00  0.00     0.132 C 
BRANCH  26  27
ATOM     27  CG  ASP     2      13.879   3.592   4.612  1.00  0.00     0.188 C 
ATOM     28  OD2 ASP     2      13.006   2.837   4.112  1.00  0.00    -0.647 OA
ATOM     29  OD1 ASP     2      14.965   3.119   5.029  1.00  0.00    -0.647 OA
ENDBRANCH  26  27
ENDBRANCH  25  26
BRANCH  25  30
ATOM     30  N   ASP     2      12.019   5.720   7.082  1.00  0.00    -0.228 NA
ATOM     31  C   TYR     1      10.887   5.987   7.692  1.00  0.00     0.289 C 
ATOM     32  O   TYR     1      10.008   5.194   8.046  1.00  0.00    -0.268 OA
BRANCH  31  33
ATOM     33  CA  TYR     1      10.709   7.482   7.935  1.00  0.00     0.385 C 
ATOM     34  N   TYR     1      10.346   7.669   9.350  1.00  0.00     0.626 N 
BRANCH  33  35
ATOM     35  CB  TYR     1      12.027   8.163   7.575  1.00  0.00     0.075 C 
BRANCH  35  36
ATOM     36  CG  TYR     1      11.863   9.275   6.528  1.00  0.00    -0.019 A 
ATOM     37  CD2 TYR     1      12.598  10.448   6.598  1.00  0.00    -0.002 A 
ATOM     38  CE2 TYR     1      12.532  11.375   5.569  1.00  0.00     0.027 A 
ATOM     39  CZ  TYR     1      11.714  11.115   4.471  1.00  0.00     0.131 A 
ATOM     40  CE1 TYR     1      10.952   9.961   4.426  1.00  0.00     0.027 A 
ATOM     41  OH  TYR     1      11.774  11.903   3.379  1.00  0.00    -0.190 OA
ATOM     42  CD1 TYR     1      11.018   9.034   5.455  1.00  0.00    -0.002 A 
ENDBRANCH  35  36
ENDBRANCH  33  35
ENDBRANCH  31  33
ENDBRANCH  25  30
ENDBRANCH  21  25
ENDBRANCH  16  18
ENDBRANCH   9  15
ENDBRANCH   7   9
ENDBRANCH   5   6
BRANCH   5  43
ATOM     43  CB  TYR     5      14.365  -2.360   4.106  1.00  0.00     0.060 C 
BRANCH  43  44
ATOM     44  CG  TYR     5      12.888  -1.934   4.077  1.00  0.00    -0.020 A 
ATOM     45  CD2 TYR     5      11.902  -2.826   3.675  1.00  0.00    -0.002 A 
ATOM     46  CE2 TYR     5      10.567  -2.433   3.660  1.00  0.00     0.027 A 
ATOM     47  CZ  TYR     5      10.218  -1.149   4.047  1.00  0.00     0.131 A 
ATOM     48  CE1 TYR     5      11.197  -0.256   4.469  1.00  0.00     0.027 A 
ATOM     49  OH  TYR     5       8.946  -0.717   3.903  1.00  0.00    -0.190 OA
ATOM     50  CD1 TYR     5      12.535  -0.649   4.474  1.00  0.00    -0.002 A 
ENDBRANCH  43  44
ENDBRANCH   5  43
ENDBRANCH   3   5
ENDBRANCH   1   2
BRANCH   1  51
ATOM     51  CB  ARG     6      18.573  -5.530   6.271  1.00  0.00     0.036 C 
BRANCH  51  52
ATOM     52  CG  ARG     6      19.475  -5.456   5.037  1.00  0.00     0.029 C 
BRANCH  52  53
ATOM     53  CD  ARG     6      19.748  -6.855   4.493  1.00  0.00     0.145 C 
BRANCH  53  54
ATOM     54  NE  ARG     6      20.281  -7.735   5.546  1.00  0.00    -0.083 NA
ATOM     55  CZ  ARG     6      21.579  -8.047   5.721  1.00  0.00     0.782 C 
ATOM     56  NH2 ARG     6      21.946  -8.924   6.659  1.00  0.00     0.063 N 
ATOM     57  NH1 ARG     6      22.504  -7.551   4.906  1.00  0.00     0.063 N 
ENDBRANCH  53  54
ENDBRANCH  52  53
ENDBRANCH  51  52
ENDBRANCH   1  51
BRANCH   1  58
ATOM     58  C   ARG     6      16.928  -7.236   6.907  1.00  0.00     0.274 C 
ATOM     59  N   ASN     7      15.866  -7.986   6.625  1.00  0.00    -0.228 NA
ATOM     60  O   ARG     6      17.704  -7.431   7.844  1.00  0.00    -0.268 OA
BRANCH  59  61
ATOM     61  CA  ASN     7      15.531  -9.229   7.350  1.00  0.00     0.196 C 
BRANCH  61  62
ATOM     62  C   ASN     7      16.091 -10.473   6.632  1.00  0.00     0.275 C 
ATOM     63  N   PHE     8      15.552 -11.657   6.960  1.00  0.00    -0.228 NA
ATOM     64  O   ASN     7      16.673 -10.290   5.580  1.00  0.00    -0.268 OA
BRANCH  63  65
ATOM     65  CA  PHE     8      15.895 -12.951   6.320  1.00  0.00     0.191 C 
BRANCH  65  66
ATOM     66  CB  PHE     8      16.843 -13.713   7.256  1.00  0.00     0.060 C 
BRANCH  66  67
ATOM     67  CG  PHE     8      18.337 -13.426   7.019  1.00  0.00    -0.020 A 
ATOM     68  CD1 PHE     8      18.791 -13.124   5.743  1.00  0.00    -0.004 A 
ATOM     69  CE1 PHE     8      20.157 -12.965   5.511  1.00  0.00    -0.000 A 
ATOM     70  CZ  PHE     8      21.052 -13.092   6.561  1.00  0.00    -0.000 A 
ATOM     71  CE2 PHE     8      20.598 -13.381   7.844  1.00  0.00    -0.000 A 
ATOM     72  CD2 PHE     8      19.232 -13.541   8.075  1.00  0.00    -0.004 A 
ENDBRANCH  66  67
ENDBRANCH  65  66
BRANCH  65  73
ATOM     73  C   PHE     8      14.682 -13.815   5.907  1.00  0.00     0.275 C 
ATOM     74  N   TRP     9      14.942 -14.871   5.133  1.00  0.00    -0.228 NA
ATOM     75  O   PHE     8      13.529 -13.409   6.069  1.00  0.00    -0.268 OA
BRANCH  74  76
ATOM     76  CA  TRP     9      13.894 -15.854   4.764  1.00  0.00     0.191 C 
BRANCH  76  77
ATOM     77  CB  TRP     9      13.609 -15.734   3.258  1.00  0.00     0.062 C 
BRANCH  77  78
ATOM     78  CG  TRP     9      12.225 -15.163   2.951  1.00  0.00     0.001 A 
ATOM     79  CD1 TRP     9      11.914 -13.874   2.860  1.00  0.00     0.095 A 
ATOM     80  NE1 TRP     9      10.596 -13.728   2.879  1.00  0.00    -0.244 NA
ATOM     81  CE2 TRP     9      10.019 -14.917   2.963  1.00  0.00     0.081 A 
ATOM     82  CD2 TRP     9      11.027 -15.867   3.025  1.00  0.00     0.015 A 
ATOM     83  CZ2 TRP     9       8.691 -15.318   3.102  1.00  0.00     0.019 A 
ATOM     84  CE3 TRP     9      10.730 -17.205   3.240  1.00  0.00     0.001 A 
ATOM     85  CZ3 TRP     9       9.407 -17.605   3.393  1.00  0.00     0.000 A 
ATOM     86  CH2 TRP     9       8.389 -16.657   3.304  1.00  0.00     0.002 A 
ENDBRANCH  77  78
ENDBRANCH  76  77
BRANCH  76  87
ATOM     87  C   TRP     9      14.211 -17.311   5.170  1.00  0.00     0.275 C 
ATOM     88  O   TRP     9      13.941 -18.246   4.422  1.00  0.00    -0.268 OA
ATOM     89  N   GLY    10      14.874 -17.473   6.314  1.00  0.00    -0.226 NA
BRANCH  89  90
ATOM     90  CA  GLY    10      15.308 -18.791   6.852  1.00  0.00     0.218 C 
BRANCH  90  91
ATOM     91  C   GLY    10      14.577 -19.289   8.110  1.00  0.00     0.277 C 
ATOM     92  N   CYS    11      13.843 -20.387   7.937  1.00  0.00    -0.228 NA
ATOM     93  O   GLY    10      14.551 -18.606   9.127  1.00  0.00    -0.268 OA
BRANCH  92  94
ATOM     94  CA  CYS    11      13.057 -21.094   8.972  1.00  0.00     0.198 C 
BRANCH  94  95
ATOM     95  C   CYS    11      13.514 -22.566   8.998  1.00  0.00     0.275 C 
ATOM     96  O   CYS    11      14.515 -22.868   9.640  1.00  0.00    -0.268 OA
ATOM     97  N   GLY    12      12.900 -23.382   8.155  1.00  0.00    -0.225 NA
BRANCH  97  98
ATOM     98  CA  GLY    12      13.226 -24.812   8.040  1.00  0.00     0.226 C 
BRANCH  98  99
ATOM     99  C   GLY    12      12.234 -25.600   8.928  1.00  0.00     0.211 C 
ATOM    100  O1  GLY    12      12.725 -26.489   9.669  1.00  0.00    -0.646 OA
ATOM    101  O2  GLY    12      11.032 -25.282   8.878  1.00  0.00    -0.646 OA
ENDBRANCH  98  99
ENDBRANCH  97  98
ENDBRANCH  94  95
BRANCH  94 102
ATOM    102  CB  CYS    11      11.582 -21.129   8.580  1.00  0.00     0.103 C 
ATOM    103  SG  CYS    11      10.566 -19.703   9.129  1.00  0.00    -0.080 SA
ENDBRANCH  94 102
ENDBRANCH  92  94
ENDBRANCH  90  91
ENDBRANCH  89  90
ENDBRANCH  76  87
ENDBRANCH  74  76
ENDBRANCH  65  73
ENDBRANCH  63  65
ENDBRANCH  61  62
BRANCH  61 104
ATOM    104  CB  ASN     7      14.018  -9.358   7.565  1.00  0.00     0.126 C 
BRANCH 104 105
ATOM    105  CG  ASN     7      13.454  -8.513   8.722  1.00  0.00     0.276 C 
ATOM    106  ND2 ASN     7      14.310  -8.173   9.658  1.00  0.00    -0.107 N 
ATOM    107  OD1 ASN     7      12.267  -8.276   8.906  1.00  0.00    -0.269 OA
ENDBRANCH 104 105
ENDBRANCH  61 104
ENDBRANCH  59  61
ENDBRANCH   1  58
TORSDOF 42
ENDMDL
