MODEL 1
REMARK VINA RESULT:      -5.3      0.000      0.000
REMARK WARNING: 32 MAX_TORS EXCEEDED!!!
REMARK  33 active torsions:
REMARK  status: ('A' for Active; 'I' for Inactive)
REMARK    1  A    between atoms: CA_2  and  C_8 
REMARK    2  A    between atoms: CA_2  and  CB_3 
REMARK    3  A    between atoms: CB_3  and  CG_4 
REMARK    4  A    between atoms: CG_4  and  CD_5 
REMARK       I    between atoms: C_8  and  N_10 
REMARK    5  A    between atoms: N_10  and  CA_11 
REMARK    6  A    between atoms: CA_11  and  C_12 
REMARK       I    between atoms: C_12  and  N_14 
REMARK    7  A    between atoms: N_14  and  CA_15 
REMARK    8  A    between atoms: CA_15  and  C_20 
REMARK    9  A    between atoms: CA_15  and  CB_16 
REMARK   10  A    between atoms: CB_16  and  CG_17 
REMARK       I    between atoms: C_20  and  N_22 
REMARK   11  A    between atoms: N_22  and  CA_23 
REMARK   12  A    between atoms: CA_23  and  CB_24 
REMARK   13  A    between atoms: CA_23  and  C_28 
REMARK   14  A    between atoms: CB_24  and  CG_25 
REMARK       I    between atoms: C_28  and  N_30 
REMARK   15  A    between atoms: N_30  and  CA_31 
REMARK   16  A    between atoms: CA_31  and  CB_32 
REMARK   17  A    between atoms: CA_31  and  C_39 
REMARK   18  A    between atoms: CB_32  and  CG_33 
REMARK   19  A    between atoms: CG_33  and  CD_34 
REMARK   20  A    between atoms: CD_34  and  NE_35 
REMARK       I    between atoms: C_39  and  N_41 
REMARK   21  A    between atoms: CA_42  and  C_46 
REMARK       I    between atoms: C_46  and  N_48 
REMARK   22  A    between atoms: N_48  and  CA_49 
REMARK   23  A    between atoms: CA_49  and  C_52 
REMARK   24  A    between atoms: CA_49  and  CB_50 
REMARK       I    between atoms: C_52  and  N_54 
REMARK   25  A    between atoms: N_54  and  CA_55 
REMARK   26  A    between atoms: CA_55  and  C_56 
REMARK       I    between atoms: C_56  and  N_58 
REMARK   27  A    between atoms: N_58  and  CA_59 
REMARK   28  A    between atoms: CA_59  and  C_60 
REMARK       I    between atoms: C_60  and  N_62 
REMARK   29  A    between atoms: N_62  and  CA_63 
REMARK   30  A    between atoms: CA_63  and  CB_64 
REMARK   31  A    between atoms: CA_63  and  C_66 
REMARK       I    between atoms: C_66  and  N_68 
REMARK   32  A    between atoms: N_68  and  CA_69 
REMARK   33  A    between atoms: CA_69  and  C_70 
ROOT
ATOM      1  CA  ARG     5       3.176  -0.134  10.091  1.00  0.00     0.185 C 
ENDROOT
BRANCH   1   2
ATOM      2  N   ARG     5       4.511   0.350   9.693  1.00  0.00    -0.229 NA
ATOM      3  C   ASN     4       5.118   1.423  10.175  1.00  0.00     0.275 C 
ATOM      4  O   ASN     4       4.557   2.299  10.825  1.00  0.00    -0.268 OA
BRANCH   3   5
ATOM      5  CA  ASN     4       6.515   1.644   9.558  1.00  0.00     0.196 C 
BRANCH   5   6
ATOM      6  N   ASN     4       7.156   0.350   9.240  1.00  0.00    -0.228 NA
ATOM      7  C   LEU     3       8.445   0.102   9.458  1.00  0.00     0.274 C 
ATOM      8  O   LEU     3       9.246   0.903   9.951  1.00  0.00    -0.268 OA
BRANCH   7   9
ATOM      9  CA  LEU     3       8.896  -1.315   9.110  1.00  0.00     0.186 C 
BRANCH   9  10
ATOM     10  N   LEU     3       9.389  -1.350   7.715  1.00  0.00    -0.229 NA
ATOM     11  C   GLY     2       8.816  -2.088   6.761  1.00  0.00     0.277 C 
ATOM     12  O   GLY     2       7.753  -2.671   6.914  1.00  0.00    -0.268 OA
BRANCH  11  13
ATOM     13  CA  GLY     2       9.483  -2.034   5.370  1.00  0.00     0.218 C 
BRANCH  13  14
ATOM     14  N   GLY     2      10.958  -1.890   5.308  1.00  0.00    -0.226 NA
ATOM     15  C   GLU     1      11.604  -1.701   4.152  1.00  0.00     0.289 C 
ATOM     16  O   GLU     1      10.996  -1.473   3.120  1.00  0.00    -0.268 OA
BRANCH  15  17
ATOM     17  CA  GLU     1      13.156  -1.690   4.159  1.00  0.00     0.381 C 
ATOM     18  N   GLU     1      13.756  -1.977   2.844  1.00  0.00     0.626 N 
BRANCH  17  19
ATOM     19  CB  GLU     1      13.635  -0.329   4.707  1.00  0.00     0.060 C 
BRANCH  19  20
ATOM     20  CG  GLU     1      13.990   0.797   3.725  1.00  0.00     0.100 C 
BRANCH  20  21
ATOM     21  CD  GLU     1      13.852   2.195   4.346  1.00  0.00     0.185 C 
ATOM     22  OE1 GLU     1      13.069   3.003   3.814  1.00  0.00    -0.647 OA
ATOM     23  OE2 GLU     1      14.550   2.474   5.336  1.00  0.00    -0.647 OA
ENDBRANCH  20  21
ENDBRANCH  19  20
ENDBRANCH  17  19
ENDBRANCH  15  17
ENDBRANCH  13  14
ENDBRANCH  11  13
ENDBRANCH   9  10
BRANCH   9  24
ATOM     24  CB  LEU     3      10.006  -1.733  10.083  1.00  0.00     0.034 C 
BRANCH  24  25
ATOM     25  CG  LEU     3       9.978  -3.227  10.453  1.00  0.00     0.002 C 
ATOM     26  CD1 LEU     3       8.559  -3.765  10.290  1.00  0.00     0.000 C 
ATOM     27  CD2 LEU     3      10.949  -4.032   9.582  1.00  0.00     0.000 C 
ENDBRANCH  24  25
ENDBRANCH   9  24
ENDBRANCH   7   9
ENDBRANCH   5   6
BRANCH   5  28
ATOM     28  CB  ASN     4       6.442   2.525   8.299  1.00  0.00     0.126 C 
BRANCH  28  29
ATOM     29  CG  ASN     4       7.566   3.576   8.213  1.00  0.00     0.276 C 
ATOM     30  ND2 ASN     4       7.421   4.643   8.952  1.00  0.00    -0.107 N 
ATOM     31  OD1 ASN     4       8.581   3.431   7.558  1.00  0.00    -0.269 OA
ENDBRANCH  28  29
ENDBRANCH   5  28
ENDBRANCH   3   5
ENDBRANCH   1   2
BRANCH   1  32
ATOM     32  CB  ARG     5       2.164   0.093   8.962  1.00  0.00     0.036 C 
BRANCH  32  33
ATOM     33  CG  ARG     5       0.823   0.656   9.436  1.00  0.00     0.029 C 
BRANCH  33  34
ATOM     34  CD  ARG     5       1.038   2.042  10.036  1.00  0.00     0.145 C 
BRANCH  34  35
ATOM     35  NE  ARG     5       1.509   3.017   9.023  1.00  0.00    -0.083 NA
ATOM     36  CZ  ARG     5       2.038   4.217   9.304  1.00  0.00     0.782 C 
ATOM     37  NH2 ARG     5       2.664   4.939   8.359  1.00  0.00     0.063 N 
ATOM     38  NH1 ARG     5       2.077   4.681  10.545  1.00  0.00     0.063 N 
ENDBRANCH  34  35
ENDBRANCH  33  34
ENDBRANCH  32  33
ENDBRANCH   1  32
BRANCH   1  39
ATOM     39  C   ARG     5       3.249  -1.636  10.423  1.00  0.00     0.256 C 
ATOM     40  O   ARG     5       3.972  -2.377   9.751  1.00  0.00    -0.270 OA
ATOM     41  N   PRO     6       2.592  -2.054  11.509  1.00  0.00    -0.312 N 
ATOM     42  CA  PRO     6       2.530  -3.465  11.952  1.00  0.00     0.165 C 
ATOM     43  CD  PRO     6       1.965  -1.178  12.523  1.00  0.00     0.105 C 
ATOM     44  CB  PRO     6       1.594  -3.456  13.161  1.00  0.00     0.034 C 
ATOM     45  CG  PRO     6       1.817  -2.072  13.755  1.00  0.00     0.027 C 
BRANCH  42  46
ATOM     46  C   PRO     6       1.983  -4.377  10.841  1.00  0.00     0.272 C 
ATOM     47  N   SER     7       2.738  -5.364  10.378  1.00  0.00    -0.226 NA
ATOM     48  O   PRO     6       0.896  -4.125  10.314  1.00  0.00    -0.269 OA
BRANCH  47  49
ATOM     49  CA  SER     7       4.113  -5.708  10.813  1.00  0.00     0.219 C 
BRANCH  49  50
ATOM     50  C   SER     7       4.916  -6.396   9.695  1.00  0.00     0.277 C 
ATOM     51  O   SER     7       4.415  -6.514   8.582  1.00  0.00    -0.268 OA
ATOM     52  N   GLY     8       6.199  -6.608   9.952  1.00  0.00    -0.226 NA
BRANCH  52  53
ATOM     53  CA  GLY     8       7.052  -7.444   9.066  1.00  0.00     0.218 C 
BRANCH  53  54
ATOM     54  C   GLY     8       8.579  -7.283   9.165  1.00  0.00     0.277 C 
ATOM     55  N   GLY     9       9.181  -7.807  10.243  1.00  0.00    -0.226 NA
ATOM     56  O   GLY     8       9.198  -6.737   8.267  1.00  0.00    -0.268 OA
BRANCH  55  57
ATOM     57  CA  GLY     9      10.633  -7.694  10.490  1.00  0.00     0.218 C 
BRANCH  57  58
ATOM     58  C   GLY     9      11.320  -9.081  10.470  1.00  0.00     0.277 C 
ATOM     59  O   GLY     9      11.082  -9.881  11.366  1.00  0.00    -0.268 OA
ATOM     60  N   CYS    10      12.284  -9.371   9.608  1.00  0.00    -0.228 NA
BRANCH  60  61
ATOM     61  CA  CYS    10      12.891  -8.484   8.586  1.00  0.00     0.198 C 
BRANCH  61  62
ATOM     62  CB  CYS    10      14.228  -7.891   9.045  1.00  0.00     0.103 C 
ATOM     63  SG  CYS    10      14.189  -6.369  10.051  1.00  0.00    -0.080 SA
ENDBRANCH  61  62
BRANCH  61  64
ATOM     64  C   CYS    10      13.217  -9.184   7.265  1.00  0.00     0.275 C 
ATOM     65  O   CYS    10      12.565 -10.172   6.931  1.00  0.00    -0.268 OA
ATOM     66  N   GLY    11      13.975  -8.467   6.452  1.00  0.00    -0.225 NA
BRANCH  66  67
ATOM     67  CA  GLY    11      14.950  -9.098   5.552  1.00  0.00     0.226 C 
BRANCH  67  68
ATOM     68  C   GLY    11      14.578  -8.589   4.150  1.00  0.00     0.211 C 
ATOM     69  O2  GLY    11      15.537  -8.218   3.439  1.00  0.00    -0.646 OA
ATOM     70  O1  GLY    11      13.453  -8.932   3.718  1.00  0.00    -0.646 OA
ENDBRANCH  67  68
ENDBRANCH  66  67
ENDBRANCH  61  64
ENDBRANCH  60  61
ENDBRANCH  57  58
ENDBRANCH  55  57
ENDBRANCH  53  54
ENDBRANCH  52  53
ENDBRANCH  49  50
BRANCH  49  71
ATOM     71  CB  SER     7       4.106  -6.654  12.017  1.00  0.00     0.216 C 
ATOM     72  OG  SER     7       3.240  -7.759  11.761  1.00  0.00    -0.218 OA
ENDBRANCH  49  71
ENDBRANCH  47  49
ENDBRANCH  42  46
ENDBRANCH   1  39
TORSDOF 33
ENDMDL
MODEL 2
REMARK VINA RESULT:      -5.3      1.754      2.240
REMARK WARNING: 32 MAX_TORS EXCEEDED!!!
REMARK  33 active torsions:
REMARK  status: ('A' for Active; 'I' for Inactive)
REMARK    1  A    between atoms: CA_2  and  C_8 
REMARK    2  A    between atoms: CA_2  and  CB_3 
REMARK    3  A    between atoms: CB_3  and  CG_4 
REMARK    4  A    between atoms: CG_4  and  CD_5 
REMARK       I    between atoms: C_8  and  N_10 
REMARK    5  A    between atoms: N_10  and  CA_11 
REMARK    6  A    between atoms: CA_11  and  C_12 
REMARK       I    between atoms: C_12  and  N_14 
REMARK    7  A    between atoms: N_14  and  CA_15 
REMARK    8  A    between atoms: CA_15  and  C_20 
REMARK    9  A    between atoms: CA_15  and  CB_16 
REMARK   10  A    between atoms: CB_16  and  CG_17 
REMARK       I    between atoms: C_20  and  N_22 
REMARK   11  A    between atoms: N_22  and  CA_23 
REMARK   12  A    between atoms: CA_23  and  CB_24 
REMARK   13  A    between atoms: CA_23  and  C_28 
REMARK   14  A    between atoms: CB_24  and  CG_25 
REMARK       I    between atoms: C_28  and  N_30 
REMARK   15  A    between atoms: N_30  and  CA_31 
REMARK   16  A    between atoms: CA_31  and  CB_32 
REMARK   17  A    between atoms: CA_31  and  C_39 
REMARK   18  A    between atoms: CB_32  and  CG_33 
REMARK   19  A    between atoms: CG_33  and  CD_34 
REMARK   20  A    between atoms: CD_34  and  NE_35 
REMARK       I    between atoms: C_39  and  N_41 
REMARK   21  A    between atoms: CA_42  and  C_46 
REMARK       I    between atoms: C_46  and  N_48 
REMARK   22  A    between atoms: N_48  and  CA_49 
REMARK   23  A    between atoms: CA_49  and  C_52 
REMARK   24  A    between atoms: CA_49  and  CB_50 
REMARK       I    between atoms: C_52  and  N_54 
REMARK   25  A    between atoms: N_54  and  CA_55 
REMARK   26  A    between atoms: CA_55  and  C_56 
REMARK       I    between atoms: C_56  and  N_58 
REMARK   27  A    between atoms: N_58  and  CA_59 
REMARK   28  A    between atoms: CA_59  and  C_60 
REMARK       I    between atoms: C_60  and  N_62 
REMARK   29  A    between atoms: N_62  and  CA_63 
REMARK   30  A    between atoms: CA_63  and  CB_64 
REMARK   31  A    between atoms: CA_63  and  C_66 
REMARK       I    between atoms: C_66  and  N_68 
REMARK   32  A    between atoms: N_68  and  CA_69 
REMARK   33  A    between atoms: CA_69  and  C_70 
ROOT
ATOM      1  CA  ARG     5       2.520  -0.410   9.893  1.00  0.00     0.185 C 
ENDROOT
BRANCH   1   2
ATOM      2  N   ARG     5       3.805   0.250   9.598  1.00  0.00    -0.229 NA
ATOM      3  C   ASN     4       4.445   1.086  10.400  1.00  0.00     0.275 C 
ATOM      4  O   ASN     4       3.941   1.622  11.382  1.00  0.00    -0.268 OA
BRANCH   3   5
ATOM      5  CA  ASN     4       5.774   1.589   9.797  1.00  0.00     0.196 C 
BRANCH   5   6
ATOM      6  N   ASN     4       6.594   0.455   9.323  1.00  0.00    -0.228 NA
ATOM      7  C   LEU     3       7.695   0.041   9.945  1.00  0.00     0.274 C 
ATOM      8  O   LEU     3       8.152   0.537  10.980  1.00  0.00    -0.268 OA
BRANCH   7   9
ATOM      9  CA  LEU     3       8.367  -1.182   9.322  1.00  0.00     0.186 C 
BRANCH   9  10
ATOM     10  N   LEU     3       8.896  -0.829   7.985  1.00  0.00    -0.229 NA
ATOM     11  C   GLY     2       8.660  -1.564   6.895  1.00  0.00     0.277 C 
ATOM     12  O   GLY     2       7.868  -2.495   6.873  1.00  0.00    -0.268 OA
BRANCH  11  13
ATOM     13  CA  GLY     2       9.320  -1.070   5.590  1.00  0.00     0.218 C 
BRANCH  13  14
ATOM     14  N   GLY     2      10.801  -1.027   5.530  1.00  0.00    -0.226 NA
ATOM     15  C   GLU     1      11.480  -1.452   4.458  1.00  0.00     0.289 C 
ATOM     16  O   GLU     1      10.905  -1.738   3.420  1.00  0.00    -0.268 OA
BRANCH  15  17
ATOM     17  CA  GLU     1      13.030  -1.494   4.524  1.00  0.00     0.381 C 
ATOM     18  N   GLU     1      13.557  -2.583   5.365  1.00  0.00     0.626 N 
BRANCH  17  19
ATOM     19  CB  GLU     1      13.581  -1.579   3.086  1.00  0.00     0.060 C 
BRANCH  19  20
ATOM     20  CG  GLU     1      14.147  -0.316   2.419  1.00  0.00     0.100 C 
BRANCH  20  21
ATOM     21  CD  GLU     1      13.204   0.270   1.358  1.00  0.00     0.185 C 
ATOM     22  OE1 GLU     1      12.849   1.457   1.473  1.00  0.00    -0.647 OA
ATOM     23  OE2 GLU     1      12.807  -0.473   0.443  1.00  0.00    -0.647 OA
ENDBRANCH  20  21
ENDBRANCH  19  20
ENDBRANCH  17  19
ENDBRANCH  15  17
ENDBRANCH  13  14
ENDBRANCH  11  13
ENDBRANCH   9  10
BRANCH   9  24
ATOM     24  CB  LEU     3       9.501  -1.645  10.243  1.00  0.00     0.034 C 
BRANCH  24  25
ATOM     25  CG  LEU     3       9.227  -2.989  10.941  1.00  0.00     0.002 C 
ATOM     26  CD1 LEU     3       8.063  -3.695  10.246  1.00  0.00     0.000 C 
ATOM     27  CD2 LEU     3      10.469  -3.886  10.926  1.00  0.00     0.000 C 
ENDBRANCH  24  25
ENDBRANCH   9  24
ENDBRANCH   7   9
ENDBRANCH   5   6
BRANCH   5  28
ATOM     28  CB  ASN     4       5.531   2.586   8.651  1.00  0.00     0.126 C 
BRANCH  28  29
ATOM     29  CG  ASN     4       5.445   4.053   9.114  1.00  0.00     0.276 C 
ATOM     30  ND2 ASN     4       4.247   4.566   9.197  1.00  0.00    -0.107 N 
ATOM     31  OD1 ASN     4       6.407   4.714   9.457  1.00  0.00    -0.269 OA
ENDBRANCH  28  29
ENDBRANCH   5  28
ENDBRANCH   3   5
ENDBRANCH   1   2
BRANCH   1  32
ATOM     32  CB  ARG     5       1.555  -0.261   8.711  1.00  0.00     0.036 C 
BRANCH  32  33
ATOM     33  CG  ARG     5       0.621   0.945   8.822  1.00  0.00     0.029 C 
BRANCH  33  34
ATOM     34  CD  ARG     5      -0.804   0.461   9.069  1.00  0.00     0.145 C 
BRANCH  34  35
ATOM     35  NE  ARG     5      -1.662   0.629   7.870  1.00  0.00    -0.083 NA
ATOM     36  CZ  ARG     5      -2.982   0.865   7.901  1.00  0.00     0.782 C 
ATOM     37  NH2 ARG     5      -3.644   1.248   6.797  1.00  0.00     0.063 N 
ATOM     38  NH1 ARG     5      -3.658   0.853   9.041  1.00  0.00     0.063 N 
ENDBRANCH  34  35
ENDBRANCH  33  34
ENDBRANCH  32  33
ENDBRANCH   1  32
BRANCH   1  39
ATOM     39  C   ARG     5       2.760  -1.904  10.178  1.00  0.00     0.256 C 
ATOM     40  O   ARG     5       3.608  -2.523   9.528  1.00  0.00    -0.270 OA
ATOM     41  N   PRO     6       2.097  -2.445  11.204  1.00  0.00    -0.312 N 
ATOM     42  CA  PRO     6       2.186  -3.870  11.592  1.00  0.00     0.165 C 
ATOM     43  CD  PRO     6       1.306  -1.696  12.205  1.00  0.00     0.105 C 
ATOM     44  CB  PRO     6       1.185  -4.027  12.739  1.00  0.00     0.034 C 
ATOM     45  CG  PRO     6       1.198  -2.653  13.393  1.00  0.00     0.027 C 
BRANCH  42  46
ATOM     46  C   PRO     6       1.824  -4.795  10.418  1.00  0.00     0.272 C 
ATOM     47  N   SER     7       2.702  -5.700  10.008  1.00  0.00    -0.226 NA
ATOM     48  O   PRO     6       0.770  -4.623   9.798  1.00  0.00    -0.269 OA
BRANCH  47  49
ATOM     49  CA  SER     7       4.057  -5.937  10.561  1.00  0.00     0.219 C 
BRANCH  49  50
ATOM     50  C   SER     7       5.002  -6.562   9.521  1.00  0.00     0.277 C 
ATOM     51  O   SER     7       4.613  -6.709   8.367  1.00  0.00    -0.268 OA
ATOM     52  N   GLY     8       6.269  -6.686   9.893  1.00  0.00    -0.226 NA
BRANCH  52  53
ATOM     53  CA  GLY     8       7.254  -7.457   9.089  1.00  0.00     0.218 C 
BRANCH  53  54
ATOM     54  C   GLY     8       8.749  -7.280   9.407  1.00  0.00     0.277 C 
ATOM     55  N   GLY     9       9.187  -7.762  10.579  1.00  0.00    -0.226 NA
ATOM     56  O   GLY     8       9.492  -6.759   8.592  1.00  0.00    -0.268 OA
BRANCH  55  57
ATOM     57  CA  GLY     9      10.586  -7.629  11.034  1.00  0.00     0.218 C 
BRANCH  57  58
ATOM     58  C   GLY     9      11.486  -8.733  10.427  1.00  0.00     0.277 C 
ATOM     59  O   GLY     9      11.298  -9.901  10.743  1.00  0.00    -0.268 OA
ATOM     60  N   CYS    10      12.560  -8.442   9.707  1.00  0.00    -0.228 NA
BRANCH  60  61
ATOM     61  CA  CYS    10      13.108  -7.101   9.388  1.00  0.00     0.198 C 
BRANCH  61  62
ATOM     62  CB  CYS    10      14.109  -6.613  10.441  1.00  0.00     0.103 C 
ATOM     63  SG  CYS    10      15.052  -7.868  11.372  1.00  0.00    -0.080 SA
ENDBRANCH  61  62
BRANCH  61  64
ATOM     64  C   CYS    10      13.881  -7.040   8.069  1.00  0.00     0.275 C 
ATOM     65  O   CYS    10      14.288  -5.954   7.660  1.00  0.00    -0.268 OA
ATOM     66  N   GLY    11      14.312  -8.217   7.647  1.00  0.00    -0.225 NA
BRANCH  66  67
ATOM     67  CA  GLY    11      14.415  -8.530   6.214  1.00  0.00     0.226 C 
BRANCH  67  68
ATOM     68  C   GLY    11      13.597  -9.818   6.034  1.00  0.00     0.211 C 
ATOM     69  O2  GLY    11      12.655  -9.976   6.840  1.00  0.00    -0.646 OA
ATOM     70  O1  GLY    11      13.691 -10.381   4.919  1.00  0.00    -0.646 OA
ENDBRANCH  67  68
ENDBRANCH  66  67
ENDBRANCH  61  64
ENDBRANCH  60  61
ENDBRANCH  57  58
ENDBRANCH  55  57
ENDBRANCH  53  54
ENDBRANCH  52  53
ENDBRANCH  49  50
BRANCH  49  71
ATOM     71  CB  SER     7       4.020  -6.878  11.767  1.00  0.00     0.216 C 
ATOM     72  OG  SER     7       2.990  -7.852  11.593  1.00  0.00    -0.218 OA
ENDBRANCH  49  71
ENDBRANCH  47  49
ENDBRANCH  42  46
ENDBRANCH   1  39
TORSDOF 33
ENDMDL
MODEL 3
REMARK VINA RESULT:      -5.2      9.899     16.640
REMARK WARNING: 32 MAX_TORS EXCEEDED!!!
REMARK  33 active torsions:
REMARK  status: ('A' for Active; 'I' for Inactive)
REMARK    1  A    between atoms: CA_2  and  C_8 
REMARK    2  A    between atoms: CA_2  and  CB_3 
REMARK    3  A    between atoms: CB_3  and  CG_4 
REMARK    4  A    between atoms: CG_4  and  CD_5 
REMARK       I    between atoms: C_8  and  N_10 
REMARK    5  A    between atoms: N_10  and  CA_11 
REMARK    6  A    between atoms: CA_11  and  C_12 
REMARK       I    between atoms: C_12  and  N_14 
REMARK    7  A    between atoms: N_14  and  CA_15 
REMARK    8  A    between atoms: CA_15  and  C_20 
REMARK    9  A    between atoms: CA_15  and  CB_16 
REMARK   10  A    between atoms: CB_16  and  CG_17 
REMARK       I    between atoms: C_20  and  N_22 
REMARK   11  A    between atoms: N_22  and  CA_23 
REMARK   12  A    between atoms: CA_23  and  CB_24 
REMARK   13  A    between atoms: CA_23  and  C_28 
REMARK   14  A    between atoms: CB_24  and  CG_25 
REMARK       I    between atoms: C_28  and  N_30 
REMARK   15  A    between atoms: N_30  and  CA_31 
REMARK   16  A    between atoms: CA_31  and  CB_32 
REMARK   17  A    between atoms: CA_31  and  C_39 
REMARK   18  A    between atoms: CB_32  and  CG_33 
REMARK   19  A    between atoms: CG_33  and  CD_34 
REMARK   20  A    between atoms: CD_34  and  NE_35 
REMARK       I    between atoms: C_39  and  N_41 
REMARK   21  A    between atoms: CA_42  and  C_46 
REMARK       I    between atoms: C_46  and  N_48 
REMARK   22  A    between atoms: N_48  and  CA_49 
REMARK   23  A    between atoms: CA_49  and  C_52 
REMARK   24  A    between atoms: CA_49  and  CB_50 
REMARK       I    between atoms: C_52  and  N_54 
REMARK   25  A    between atoms: N_54  and  CA_55 
REMARK   26  A    between atoms: CA_55  and  C_56 
REMARK       I    between atoms: C_56  and  N_58 
REMARK   27  A    between atoms: N_58  and  CA_59 
REMARK   28  A    between atoms: CA_59  and  C_60 
REMARK       I    between atoms: C_60  and  N_62 
REMARK   29  A    between atoms: N_62  and  CA_63 
REMARK   30  A    between atoms: CA_63  and  CB_64 
REMARK   31  A    between atoms: CA_63  and  C_66 
REMARK       I    between atoms: C_66  and  N_68 
REMARK   32  A    between atoms: N_68  and  CA_69 
REMARK   33  A    between atoms: CA_69  and  C_70 
ROOT
ATOM      1  CA  ARG     5      -9.648  -4.872   7.447  1.00  0.00     0.185 C 
ENDROOT
BRANCH   1   2
ATOM      2  N   ARG     5      -9.128  -5.065   8.813  1.00  0.00    -0.229 NA
ATOM      3  C   ASN     4      -8.605  -6.184   9.289  1.00  0.00     0.275 C 
ATOM      4  O   ASN     4      -8.711  -7.279   8.746  1.00  0.00    -0.268 OA
BRANCH   3   5
ATOM      5  CA  ASN     4      -8.143  -6.049  10.754  1.00  0.00     0.196 C 
BRANCH   5   6
ATOM      6  N   ASN     4      -7.882  -4.633  11.091  1.00  0.00    -0.228 NA
ATOM      7  C   LEU     3      -6.764  -4.219  11.682  1.00  0.00     0.274 C 
ATOM      8  O   LEU     3      -5.823  -4.950  12.007  1.00  0.00    -0.268 OA
BRANCH   7   9
ATOM      9  CA  LEU     3      -6.669  -2.709  11.894  1.00  0.00     0.186 C 
BRANCH   9  10
ATOM     10  N   LEU     3      -8.000  -2.095  11.692  1.00  0.00    -0.229 NA
ATOM     11  C   GLY     2      -8.218  -1.105  10.822  1.00  0.00     0.277 C 
ATOM     12  O   GLY     2      -7.383  -0.729  10.012  1.00  0.00    -0.268 OA
BRANCH  11  13
ATOM     13  CA  GLY     2      -9.660  -0.558  10.767  1.00  0.00     0.218 C 
BRANCH  13  14
ATOM     14  N   GLY     2     -10.011   0.379   9.672  1.00  0.00    -0.226 NA
ATOM     15  C   GLU     1      -9.909   1.705   9.813  1.00  0.00     0.289 C 
ATOM     16  O   GLU     1      -9.365   2.196  10.789  1.00  0.00    -0.268 OA
BRANCH  15  17
ATOM     17  CA  GLU     1     -10.417   2.619   8.666  1.00  0.00     0.381 C 
ATOM     18  N   GLU     1      -9.816   3.964   8.669  1.00  0.00     0.626 N 
BRANCH  17  19
ATOM     19  CB  GLU     1     -10.175   1.901   7.322  1.00  0.00     0.060 C 
BRANCH  19  20
ATOM     20  CG  GLU     1     -11.041   2.263   6.107  1.00  0.00     0.100 C 
BRANCH  20  21
ATOM     21  CD  GLU     1     -10.212   2.520   4.840  1.00  0.00     0.185 C 
ATOM     22  OE1 GLU     1     -10.625   2.061   3.759  1.00  0.00    -0.647 OA
ATOM     23  OE2 GLU     1      -9.145   3.149   4.948  1.00  0.00    -0.647 OA
ENDBRANCH  20  21
ENDBRANCH  19  20
ENDBRANCH  17  19
ENDBRANCH  15  17
ENDBRANCH  13  14
ENDBRANCH  11  13
ENDBRANCH   9  10
BRANCH   9  24
ATOM     24  CB  LEU     3      -6.163  -2.441  13.317  1.00  0.00     0.034 C 
BRANCH  24  25
ATOM     25  CG  LEU     3      -5.193  -1.250  13.418  1.00  0.00     0.002 C 
ATOM     26  CD1 LEU     3      -4.457  -1.079  12.091  1.00  0.00     0.000 C 
ATOM     27  CD2 LEU     3      -5.936   0.042  13.776  1.00  0.00     0.000 C 
ENDBRANCH  24  25
ENDBRANCH   9  24
ENDBRANCH   7   9
ENDBRANCH   5   6
BRANCH   5  28
ATOM     28  CB  ASN     4      -9.173  -6.646  11.728  1.00  0.00     0.126 C 
BRANCH  28  29
ATOM     29  CG  ASN     4      -8.596  -6.968  13.120  1.00  0.00     0.276 C 
ATOM     30  ND2 ASN     4      -8.955  -6.176  14.095  1.00  0.00    -0.107 N 
ATOM     31  OD1 ASN     4      -7.895  -7.934  13.357  1.00  0.00    -0.269 OA
ENDBRANCH  28  29
ENDBRANCH   5  28
ENDBRANCH   3   5
ENDBRANCH   1   2
BRANCH   1  32
ATOM     32  CB  ARG     5     -11.152  -4.576   7.481  1.00  0.00     0.036 C 
BRANCH  32  33
ATOM     33  CG  ARG     5     -12.029  -5.829   7.508  1.00  0.00     0.029 C 
BRANCH  33  34
ATOM     34  CD  ARG     5     -11.407  -6.903   6.622  1.00  0.00     0.145 C 
BRANCH  34  35
ATOM     35  NE  ARG     5     -11.794  -8.269   7.051  1.00  0.00    -0.083 NA
ATOM     36  CZ  ARG     5     -11.076  -9.377   6.816  1.00  0.00     0.782 C 
ATOM     37  NH2 ARG     5     -11.359 -10.532   7.441  1.00  0.00     0.063 N 
ATOM     38  NH1 ARG     5      -9.988  -9.347   6.060  1.00  0.00     0.063 N 
ENDBRANCH  34  35
ENDBRANCH  33  34
ENDBRANCH  32  33
ENDBRANCH   1  32
BRANCH   1  39
ATOM     39  C   ARG     5      -8.908  -3.701   6.774  1.00  0.00     0.256 C 
ATOM     40  O   ARG     5      -8.245  -2.919   7.462  1.00  0.00    -0.270 OA
ATOM     41  N   PRO     6      -8.935  -3.647   5.439  1.00  0.00    -0.312 N 
ATOM     42  CA  PRO     6      -8.306  -2.574   4.637  1.00  0.00     0.165 C 
ATOM     43  CD  PRO     6      -9.447  -4.712   4.547  1.00  0.00     0.105 C 
ATOM     44  CB  PRO     6      -8.690  -2.890   3.190  1.00  0.00     0.034 C 
ATOM     45  CG  PRO     6      -8.808  -4.407   3.192  1.00  0.00     0.027 C 
BRANCH  42  46
ATOM     46  C   PRO     6      -8.824  -1.187   5.051  1.00  0.00     0.272 C 
ATOM     47  N   SER     7      -7.958  -0.248   5.407  1.00  0.00    -0.226 NA
ATOM     48  O   PRO     6     -10.038  -0.986   5.155  1.00  0.00    -0.269 OA
BRANCH  47  49
ATOM     49  CA  SER     7      -6.482  -0.379   5.464  1.00  0.00     0.219 C 
BRANCH  49  50
ATOM     50  C   SER     7      -5.874   0.458   6.603  1.00  0.00     0.277 C 
ATOM     51  O   SER     7      -6.614   1.122   7.322  1.00  0.00    -0.268 OA
ATOM     52  N   GLY     8      -4.599   0.218   6.880  1.00  0.00    -0.226 NA
BRANCH  52  53
ATOM     53  CA  GLY     8      -3.817   1.083   7.801  1.00  0.00     0.218 C 
BRANCH  53  54
ATOM     54  C   GLY     8      -2.318   0.782   7.983  1.00  0.00     0.277 C 
ATOM     55  N   GLY     9      -1.865   0.663   9.239  1.00  0.00    -0.226 NA
ATOM     56  O   GLY     8      -1.603   0.620   7.008  1.00  0.00    -0.268 OA
BRANCH  55  57
ATOM     57  CA  GLY     9      -0.446   0.415   9.565  1.00  0.00     0.218 C 
BRANCH  57  58
ATOM     58  C   GLY     9      -0.283  -0.823  10.479  1.00  0.00     0.277 C 
ATOM     59  O   GLY     9      -1.043  -0.972  11.427  1.00  0.00    -0.268 OA
ATOM     60  N   CYS    10       0.755  -1.640  10.370  1.00  0.00    -0.228 NA
BRANCH  60  61
ATOM     61  CA  CYS    10       1.911  -1.528   9.448  1.00  0.00     0.198 C 
BRANCH  61  62
ATOM     62  CB  CYS    10       3.179  -1.039  10.157  1.00  0.00     0.103 C 
ATOM     63  SG  CYS    10       3.475   0.760  10.238  1.00  0.00    -0.080 SA
ENDBRANCH  61  62
BRANCH  61  64
ATOM     64  C   CYS    10       2.323  -2.851   8.799  1.00  0.00     0.275 C 
ATOM     65  O   CYS    10       2.968  -2.831   7.751  1.00  0.00    -0.268 OA
ATOM     66  N   GLY    11       2.213  -3.897   9.600  1.00  0.00    -0.225 NA
BRANCH  66  67
ATOM     67  CA  GLY    11       1.860  -5.228   9.084  1.00  0.00     0.226 C 
BRANCH  67  68
ATOM     68  C   GLY    11       3.002  -6.145   9.551  1.00  0.00     0.211 C 
ATOM     69  O2  GLY    11       3.955  -6.267   8.752  1.00  0.00    -0.646 OA
ATOM     70  O1  GLY    11       3.060  -6.372  10.781  1.00  0.00    -0.646 OA
ENDBRANCH  67  68
ENDBRANCH  66  67
ENDBRANCH  61  64
ENDBRANCH  60  61
ENDBRANCH  57  58
ENDBRANCH  55  57
ENDBRANCH  53  54
ENDBRANCH  52  53
ENDBRANCH  49  50
BRANCH  49  71
ATOM     71  CB  SER     7      -5.822   0.078   4.161  1.00  0.00     0.216 C 
ATOM     72  OG  SER     7      -5.485  -1.057   3.363  1.00  0.00    -0.218 OA
ENDBRANCH  49  71
ENDBRANCH  47  49
ENDBRANCH  42  46
ENDBRANCH   1  39
TORSDOF 33
ENDMDL
MODEL 4
REMARK VINA RESULT:      -5.1      3.067      7.051
REMARK WARNING: 32 MAX_TORS EXCEEDED!!!
REMARK  33 active torsions:
REMARK  status: ('A' for Active; 'I' for Inactive)
REMARK    1  A    between atoms: CA_2  and  C_8 
REMARK    2  A    between atoms: CA_2  and  CB_3 
REMARK    3  A    between atoms: CB_3  and  CG_4 
REMARK    4  A    between atoms: CG_4  and  CD_5 
REMARK       I    between atoms: C_8  and  N_10 
REMARK    5  A    between atoms: N_10  and  CA_11 
REMARK    6  A    between atoms: CA_11  and  C_12 
REMARK       I    between atoms: C_12  and  N_14 
REMARK    7  A    between atoms: N_14  and  CA_15 
REMARK    8  A    between atoms: CA_15  and  C_20 
REMARK    9  A    between atoms: CA_15  and  CB_16 
REMARK   10  A    between atoms: CB_16  and  CG_17 
REMARK       I    between atoms: C_20  and  N_22 
REMARK   11  A    between atoms: N_22  and  CA_23 
REMARK   12  A    between atoms: CA_23  and  CB_24 
REMARK   13  A    between atoms: CA_23  and  C_28 
REMARK   14  A    between atoms: CB_24  and  CG_25 
REMARK       I    between atoms: C_28  and  N_30 
REMARK   15  A    between atoms: N_30  and  CA_31 
REMARK   16  A    between atoms: CA_31  and  CB_32 
REMARK   17  A    between atoms: CA_31  and  C_39 
REMARK   18  A    between atoms: CB_32  and  CG_33 
REMARK   19  A    between atoms: CG_33  and  CD_34 
REMARK   20  A    between atoms: CD_34  and  NE_35 
REMARK       I    between atoms: C_39  and  N_41 
REMARK   21  A    between atoms: CA_42  and  C_46 
REMARK       I    between atoms: C_46  and  N_48 
REMARK   22  A    between atoms: N_48  and  CA_49 
REMARK   23  A    between atoms: CA_49  and  C_52 
REMARK   24  A    between atoms: CA_49  and  CB_50 
REMARK       I    between atoms: C_52  and  N_54 
REMARK   25  A    between atoms: N_54  and  CA_55 
REMARK   26  A    between atoms: CA_55  and  C_56 
REMARK       I    between atoms: C_56  and  N_58 
REMARK   27  A    between atoms: N_58  and  CA_59 
REMARK   28  A    between atoms: CA_59  and  C_60 
REMARK       I    between atoms: C_60  and  N_62 
REMARK   29  A    between atoms: N_62  and  CA_63 
REMARK   30  A    between atoms: CA_63  and  CB_64 
REMARK   31  A    between atoms: CA_63  and  C_66 
REMARK       I    between atoms: C_66  and  N_68 
REMARK   32  A    between atoms: N_68  and  CA_69 
REMARK   33  A    between atoms: CA_69  and  C_70 
ROOT
ATOM      1  CA  ARG     5       4.161  -4.161  10.112  1.00  0.00     0.185 C 
ENDROOT
BRANCH   1   2
ATOM      2  N   ARG     5       3.654  -2.779  10.195  1.00  0.00    -0.229 NA
ATOM      3  C   ASN     4       2.907  -2.175   9.283  1.00  0.00     0.275 C 
ATOM      4  O   ASN     4       2.745  -2.589   8.140  1.00  0.00    -0.268 OA
BRANCH   3   5
ATOM      5  CA  ASN     4       2.533  -0.732   9.681  1.00  0.00     0.196 C 
BRANCH   5   6
ATOM      6  N   ASN     4       3.647   0.195   9.392  1.00  0.00    -0.228 NA
ATOM      7  C   LEU     3       4.355   0.802  10.341  1.00  0.00     0.274 C 
ATOM      8  O   LEU     3       4.176   0.663  11.555  1.00  0.00    -0.268 OA
BRANCH   7   9
ATOM      9  CA  LEU     3       5.499   1.678   9.831  1.00  0.00     0.186 C 
BRANCH   9  10
ATOM     10  N   LEU     3       6.436   0.855   9.034  1.00  0.00    -0.229 NA
ATOM     11  C   GLY     2       7.696   1.224   8.790  1.00  0.00     0.277 C 
ATOM     12  O   GLY     2       8.230   2.184   9.326  1.00  0.00    -0.268 OA
BRANCH  11  13
ATOM     13  CA  GLY     2       8.523   0.263   7.909  1.00  0.00     0.218 C 
BRANCH  13  14
ATOM     14  N   GLY     2       9.877   0.694   7.486  1.00  0.00    -0.226 NA
ATOM     15  C   GLU     1      10.976   0.353   8.168  1.00  0.00     0.289 C 
ATOM     16  O   GLU     1      10.929  -0.466   9.071  1.00  0.00    -0.268 OA
BRANCH  15  17
ATOM     17  CA  GLU     1      12.341   0.951   7.732  1.00  0.00     0.381 C 
ATOM     18  N   GLU     1      13.152   0.037   6.909  1.00  0.00     0.626 N 
BRANCH  17  19
ATOM     19  CB  GLU     1      12.081   2.283   7.000  1.00  0.00     0.060 C 
BRANCH  19  20
ATOM     20  CG  GLU     1      11.979   3.583   7.813  1.00  0.00     0.100 C 
BRANCH  20  21
ATOM     21  CD  GLU     1      10.896   4.534   7.281  1.00  0.00     0.185 C 
ATOM     22  OE1 GLU     1      11.199   5.725   7.086  1.00  0.00    -0.647 OA
ATOM     23  OE2 GLU     1       9.751   4.083   7.097  1.00  0.00    -0.647 OA
ENDBRANCH  20  21
ENDBRANCH  19  20
ENDBRANCH  17  19
ENDBRANCH  15  17
ENDBRANCH  13  14
ENDBRANCH  11  13
ENDBRANCH   9  10
BRANCH   9  24
ATOM     24  CB  LEU     3       4.912   2.806   8.974  1.00  0.00     0.034 C 
BRANCH  24  25
ATOM     25  CG  LEU     3       5.191   4.216   9.525  1.00  0.00     0.002 C 
ATOM     26  CD1 LEU     3       5.806   4.105  10.919  1.00  0.00     0.000 C 
ATOM     27  CD2 LEU     3       6.128   4.998   8.599  1.00  0.00     0.000 C 
ENDBRANCH  24  25
ENDBRANCH   9  24
ENDBRANCH   7   9
ENDBRANCH   5   6
BRANCH   5  28
ATOM     28  CB  ASN     4       1.254  -0.264   8.966  1.00  0.00     0.126 C 
BRANCH  28  29
ATOM     29  CG  ASN     4       0.028  -0.161   9.895  1.00  0.00     0.276 C 
ATOM     30  ND2 ASN     4      -1.067   0.308   9.359  1.00  0.00    -0.107 N 
ATOM     31  OD1 ASN     4       0.017  -0.545  11.049  1.00  0.00    -0.269 OA
ENDBRANCH  28  29
ENDBRANCH   5  28
ENDBRANCH   3   5
ENDBRANCH   1   2
BRANCH   1  32
ATOM     32  CB  ARG     5       3.289  -4.998   9.170  1.00  0.00     0.036 C 
BRANCH  32  33
ATOM     33  CG  ARG     5       2.995  -6.407   9.687  1.00  0.00     0.029 C 
BRANCH  33  34
ATOM     34  CD  ARG     5       3.462  -6.524  11.134  1.00  0.00     0.145 C 
BRANCH  34  35
ATOM     35  NE  ARG     5       2.436  -6.037  12.088  1.00  0.00    -0.083 NA
ATOM     36  CZ  ARG     5       1.748  -6.816  12.936  1.00  0.00     0.782 C 
ATOM     37  NH2 ARG     5       1.022  -6.285  13.933  1.00  0.00     0.063 N 
ATOM     38  NH1 ARG     5       1.857  -8.137  12.902  1.00  0.00     0.063 N 
ENDBRANCH  34  35
ENDBRANCH  33  34
ENDBRANCH  32  33
ENDBRANCH   1  32
BRANCH   1  39
ATOM     39  C   ARG     5       5.612  -4.147   9.595  1.00  0.00     0.256 C 
ATOM     40  O   ARG     5       5.849  -3.767   8.445  1.00  0.00    -0.270 OA
ATOM     41  N   PRO     6       6.575  -4.458  10.468  1.00  0.00    -0.312 N 
ATOM     42  CA  PRO     6       8.014  -4.527  10.130  1.00  0.00     0.165 C 
ATOM     43  CD  PRO     6       6.389  -4.624  11.927  1.00  0.00     0.105 C 
ATOM     44  CB  PRO     6       8.695  -5.014  11.410  1.00  0.00     0.034 C 
ATOM     45  CG  PRO     6       7.795  -4.461  12.506  1.00  0.00     0.027 C 
BRANCH  42  46
ATOM     46  C   PRO     6       8.272  -5.500   8.967  1.00  0.00     0.272 C 
ATOM     47  N   SER     7       9.111  -5.152   8.001  1.00  0.00    -0.226 NA
ATOM     48  O   PRO     6       7.621  -6.546   8.882  1.00  0.00    -0.269 OA
BRANCH  47  49
ATOM     49  CA  SER     7       9.861  -3.877   7.893  1.00  0.00     0.219 C 
BRANCH  49  50
ATOM     50  C   SER     7       9.499  -3.103   6.614  1.00  0.00     0.277 C 
ATOM     51  O   SER     7       8.319  -2.934   6.328  1.00  0.00    -0.268 OA
ATOM     52  N   GLY     8      10.500  -2.463   6.024  1.00  0.00    -0.226 NA
BRANCH  52  53
ATOM     53  CA  GLY     8      10.357  -1.850   4.677  1.00  0.00     0.218 C 
BRANCH  53  54
ATOM     54  C   GLY     8      11.621  -1.692   3.813  1.00  0.00     0.277 C 
ATOM     55  N   GLY     9      12.778  -2.124   4.337  1.00  0.00    -0.226 NA
ATOM     56  O   GLY     8      11.540  -1.232   2.687  1.00  0.00    -0.268 OA
BRANCH  55  57
ATOM     57  CA  GLY     9      14.074  -2.001   3.639  1.00  0.00     0.218 C 
BRANCH  57  58
ATOM     58  C   GLY     9      14.972  -3.235   3.892  1.00  0.00     0.277 C 
ATOM     59  O   GLY     9      15.604  -3.313   4.938  1.00  0.00    -0.268 OA
ATOM     60  N   CYS    10      15.211  -4.132   2.945  1.00  0.00    -0.228 NA
BRANCH  60  61
ATOM     61  CA  CYS    10      14.738  -4.121   1.540  1.00  0.00     0.198 C 
BRANCH  61  62
ATOM     62  CB  CYS    10      15.802  -3.596   0.568  1.00  0.00     0.103 C 
ATOM     63  SG  CYS    10      17.544  -4.042   0.885  1.00  0.00    -0.080 SA
ENDBRANCH  61  62
BRANCH  61  64
ATOM     64  C   CYS    10      14.372  -5.503   0.994  1.00  0.00     0.275 C 
ATOM     65  O   CYS    10      14.131  -5.631  -0.205  1.00  0.00    -0.268 OA
ATOM     66  N   GLY    11      14.658  -6.497   1.818  1.00  0.00    -0.225 NA
BRANCH  66  67
ATOM     67  CA  GLY    11      13.832  -7.712   1.874  1.00  0.00     0.226 C 
BRANCH  67  68
ATOM     68  C   GLY    11      14.423  -8.535   3.030  1.00  0.00     0.211 C 
ATOM     69  O2  GLY    11      15.666  -8.670   3.015  1.00  0.00    -0.646 OA
ATOM     70  O1  GLY    11      13.697  -8.668   4.042  1.00  0.00    -0.646 OA
ENDBRANCH  67  68
ENDBRANCH  66  67
ENDBRANCH  61  64
ENDBRANCH  60  61
ENDBRANCH  57  58
ENDBRANCH  55  57
ENDBRANCH  53  54
ENDBRANCH  52  53
ENDBRANCH  49  50
BRANCH  49  71
ATOM     71  CB  SER     7      11.373  -4.111   7.873  1.00  0.00     0.216 C 
ATOM     72  OG  SER     7      11.841  -4.387   9.193  1.00  0.00    -0.218 OA
ENDBRANCH  49  71
ENDBRANCH  47  49
ENDBRANCH  42  46
ENDBRANCH   1  39
TORSDOF 33
ENDMDL
MODEL 5
REMARK VINA RESULT:      -5.1     10.571     17.415
REMARK WARNING: 32 MAX_TORS EXCEEDED!!!
REMARK  33 active torsions:
REMARK  status: ('A' for Active; 'I' for Inactive)
REMARK    1  A    between atoms: CA_2  and  C_8 
REMARK    2  A    between atoms: CA_2  and  CB_3 
REMARK    3  A    between atoms: CB_3  and  CG_4 
REMARK    4  A    between atoms: CG_4  and  CD_5 
REMARK       I    between atoms: C_8  and  N_10 
REMARK    5  A    between atoms: N_10  and  CA_11 
REMARK    6  A    between atoms: CA_11  and  C_12 
REMARK       I    between atoms: C_12  and  N_14 
REMARK    7  A    between atoms: N_14  and  CA_15 
REMARK    8  A    between atoms: CA_15  and  C_20 
REMARK    9  A    between atoms: CA_15  and  CB_16 
REMARK   10  A    between atoms: CB_16  and  CG_17 
REMARK       I    between atoms: C_20  and  N_22 
REMARK   11  A    between atoms: N_22  and  CA_23 
REMARK   12  A    between atoms: CA_23  and  CB_24 
REMARK   13  A    between atoms: CA_23  and  C_28 
REMARK   14  A    between atoms: CB_24  and  CG_25 
REMARK       I    between atoms: C_28  and  N_30 
REMARK   15  A    between atoms: N_30  and  CA_31 
REMARK   16  A    between atoms: CA_31  and  CB_32 
REMARK   17  A    between atoms: CA_31  and  C_39 
REMARK   18  A    between atoms: CB_32  and  CG_33 
REMARK   19  A    between atoms: CG_33  and  CD_34 
REMARK   20  A    between atoms: CD_34  and  NE_35 
REMARK       I    between atoms: C_39  and  N_41 
REMARK   21  A    between atoms: CA_42  and  C_46 
REMARK       I    between atoms: C_46  and  N_48 
REMARK   22  A    between atoms: N_48  and  CA_49 
REMARK   23  A    between atoms: CA_49  and  C_52 
REMARK   24  A    between atoms: CA_49  and  CB_50 
REMARK       I    between atoms: C_52  and  N_54 
REMARK   25  A    between atoms: N_54  and  CA_55 
REMARK   26  A    between atoms: CA_55  and  C_56 
REMARK       I    between atoms: C_56  and  N_58 
REMARK   27  A    between atoms: N_58  and  CA_59 
REMARK   28  A    between atoms: CA_59  and  C_60 
REMARK       I    between atoms: C_60  and  N_62 
REMARK   29  A    between atoms: N_62  and  CA_63 
REMARK   30  A    between atoms: CA_63  and  CB_64 
REMARK   31  A    between atoms: CA_63  and  C_66 
REMARK       I    between atoms: C_66  and  N_68 
REMARK   32  A    between atoms: N_68  and  CA_69 
REMARK   33  A    between atoms: CA_69  and  C_70 
ROOT
ATOM      1  CA  ARG     5      -9.734  -5.310   7.240  1.00  0.00     0.185 C 
ENDROOT
BRANCH   1   2
ATOM      2  N   ARG     5      -9.256  -5.408   8.632  1.00  0.00    -0.229 NA
ATOM      3  C   ASN     4      -8.662  -6.462   9.171  1.00  0.00     0.275 C 
ATOM      4  O   ASN     4      -8.656  -7.581   8.670  1.00  0.00    -0.268 OA
BRANCH   3   5
ATOM      5  CA  ASN     4      -8.271  -6.234  10.646  1.00  0.00     0.196 C 
BRANCH   5   6
ATOM      6  N   ASN     4      -7.829  -4.840  10.860  1.00  0.00    -0.228 NA
ATOM      7  C   LEU     3      -6.777  -4.516  11.608  1.00  0.00     0.274 C 
ATOM      8  O   LEU     3      -6.051  -5.323  12.195  1.00  0.00    -0.268 OA
BRANCH   7   9
ATOM      9  CA  LEU     3      -6.457  -3.022  11.656  1.00  0.00     0.186 C 
BRANCH   9  10
ATOM     10  N   LEU     3      -7.614  -2.251  11.149  1.00  0.00    -0.229 NA
ATOM     11  C   GLY     2      -7.482  -1.112  10.462  1.00  0.00     0.277 C 
ATOM     12  O   GLY     2      -6.406  -0.694  10.060  1.00  0.00    -0.268 OA
BRANCH  11  13
ATOM     13  CA  GLY     2      -8.795  -0.419  10.043  1.00  0.00     0.218 C 
BRANCH  13  14
ATOM     14  N   GLY     2     -10.061  -1.177  10.185  1.00  0.00    -0.226 NA
ATOM     15  C   GLU     1     -10.926  -1.309   9.172  1.00  0.00     0.289 C 
ATOM     16  O   GLU     1     -10.633  -0.955   8.042  1.00  0.00    -0.268 OA
BRANCH  15  17
ATOM     17  CA  GLU     1     -12.286  -2.007   9.439  1.00  0.00     0.381 C 
ATOM     18  N   GLU     1     -13.126  -2.147   8.236  1.00  0.00     0.626 N 
BRANCH  17  19
ATOM     19  CB  GLU     1     -12.015  -3.377  10.095  1.00  0.00     0.060 C 
BRANCH  19  20
ATOM     20  CG  GLU     1     -12.895  -3.839  11.266  1.00  0.00     0.100 C 
BRANCH  20  21
ATOM     21  CD  GLU     1     -13.581  -5.187  11.000  1.00  0.00     0.185 C 
ATOM     22  OE1 GLU     1     -14.821  -5.248  11.090  1.00  0.00    -0.647 OA
ATOM     23  OE2 GLU     1     -12.869  -6.172  10.735  1.00  0.00    -0.647 OA
ENDBRANCH  20  21
ENDBRANCH  19  20
ENDBRANCH  17  19
ENDBRANCH  15  17
ENDBRANCH  13  14
ENDBRANCH  11  13
ENDBRANCH   9  10
BRANCH   9  24
ATOM     24  CB  LEU     3      -6.144  -2.631  13.105  1.00  0.00     0.034 C 
BRANCH  24  25
ATOM     25  CG  LEU     3      -4.796  -1.907  13.277  1.00  0.00     0.002 C 
ATOM     26  CD1 LEU     3      -3.866  -2.282  12.125  1.00  0.00     0.000 C 
ATOM     27  CD2 LEU     3      -4.986  -0.387  13.323  1.00  0.00     0.000 C 
ENDBRANCH  24  25
ENDBRANCH   9  24
ENDBRANCH   7   9
ENDBRANCH   5   6
BRANCH   5  28
ATOM     28  CB  ASN     4      -9.433  -6.575  11.596  1.00  0.00     0.126 C 
BRANCH  28  29
ATOM     29  CG  ASN     4      -8.981  -6.916  13.029  1.00  0.00     0.276 C 
ATOM     30  ND2 ASN     4      -9.445  -6.151  13.981  1.00  0.00    -0.107 N 
ATOM     31  OD1 ASN     4      -8.286  -7.873  13.312  1.00  0.00    -0.269 OA
ENDBRANCH  28  29
ENDBRANCH   5  28
ENDBRANCH   3   5
ENDBRANCH   1   2
BRANCH   1  32
ATOM     32  CB  ARG     5     -11.253  -5.107   7.208  1.00  0.00     0.036 C 
BRANCH  32  33
ATOM     33  CG  ARG     5     -12.052  -6.411   7.200  1.00  0.00     0.029 C 
BRANCH  33  34
ATOM     34  CD  ARG     5     -12.892  -6.484   5.929  1.00  0.00     0.145 C 
BRANCH  34  35
ATOM     35  NE  ARG     5     -13.011  -5.162   5.267  1.00  0.00    -0.083 NA
ATOM     36  CZ  ARG     5     -14.160  -4.490   5.101  1.00  0.00     0.782 C 
ATOM     37  NH2 ARG     5     -14.162  -3.203   4.718  1.00  0.00     0.063 N 
ATOM     38  NH1 ARG     5     -15.327  -5.027   5.427  1.00  0.00     0.063 N 
ENDBRANCH  34  35
ENDBRANCH  33  34
ENDBRANCH  32  33
ENDBRANCH   1  32
BRANCH   1  39
ATOM     39  C   ARG     5      -9.041  -4.128   6.539  1.00  0.00     0.256 C 
ATOM     40  O   ARG     5      -8.452  -3.276   7.211  1.00  0.00    -0.270 OA
ATOM     41  N   PRO     6      -9.023  -4.136   5.202  1.00  0.00    -0.312 N 
ATOM     42  CA  PRO     6      -8.430  -3.063   4.373  1.00  0.00     0.165 C 
ATOM     43  CD  PRO     6      -9.437  -5.268   4.345  1.00  0.00     0.105 C 
ATOM     44  CB  PRO     6      -8.741  -3.466   2.930  1.00  0.00     0.034 C 
ATOM     45  CG  PRO     6      -8.768  -4.986   2.999  1.00  0.00     0.027 C 
BRANCH  42  46
ATOM     46  C   PRO     6      -9.044  -1.693   4.704  1.00  0.00     0.272 C 
ATOM     47  N   SER     7      -8.250  -0.693   5.060  1.00  0.00    -0.226 NA
ATOM     48  O   PRO     6     -10.271  -1.559   4.742  1.00  0.00    -0.269 OA
BRANCH  47  49
ATOM     49  CA  SER     7      -6.774  -0.735   5.193  1.00  0.00     0.219 C 
BRANCH  49  50
ATOM     50  C   SER     7      -6.273   0.163   6.338  1.00  0.00     0.277 C 
ATOM     51  O   SER     7      -7.076   0.593   7.159  1.00  0.00    -0.268 OA
ATOM     52  N   GLY     8      -4.957   0.219   6.494  1.00  0.00    -0.226 NA
BRANCH  52  53
ATOM     53  CA  GLY     8      -4.314   1.197   7.410  1.00  0.00     0.218 C 
BRANCH  53  54
ATOM     54  C   GLY     8      -2.823   1.008   7.745  1.00  0.00     0.277 C 
ATOM     55  N   GLY     9      -2.517   0.662   9.004  1.00  0.00    -0.226 NA
ATOM     56  O   GLY     8      -1.979   1.130   6.872  1.00  0.00    -0.268 OA
BRANCH  55  57
ATOM     57  CA  GLY     9      -1.129   0.485   9.476  1.00  0.00     0.218 C 
BRANCH  57  58
ATOM     58  C   GLY     9      -1.089  -0.024  10.937  1.00  0.00     0.277 C 
ATOM     59  O   GLY     9      -1.742   0.558  11.793  1.00  0.00    -0.268 OA
ATOM     60  N   CYS    10      -0.243  -0.967  11.325  1.00  0.00    -0.228 NA
BRANCH  60  61
ATOM     61  CA  CYS    10       0.793  -1.652  10.514  1.00  0.00     0.198 C 
BRANCH  61  62
ATOM     62  CB  CYS    10       2.156  -0.953  10.594  1.00  0.00     0.103 C 
ATOM     63  SG  CYS    10       2.533   0.015  12.095  1.00  0.00    -0.080 SA
ENDBRANCH  61  62
BRANCH  61  64
ATOM     64  C   CYS    10       1.078  -3.091  10.950  1.00  0.00     0.275 C 
ATOM     65  O   CYS    10       1.232  -3.338  12.145  1.00  0.00    -0.268 OA
ATOM     66  N   GLY    11       0.819  -3.994  10.018  1.00  0.00    -0.225 NA
BRANCH  66  67
ATOM     67  CA  GLY    11       1.609  -5.228   9.902  1.00  0.00     0.226 C 
BRANCH  67  68
ATOM     68  C   GLY    11       2.240  -5.161   8.503  1.00  0.00     0.211 C 
ATOM     69  O2  GLY    11       1.735  -5.920   7.647  1.00  0.00    -0.646 OA
ATOM     70  O1  GLY    11       2.910  -4.134   8.247  1.00  0.00    -0.646 OA
ENDBRANCH  67  68
ENDBRANCH  66  67
ENDBRANCH  61  64
ENDBRANCH  60  61
ENDBRANCH  57  58
ENDBRANCH  55  57
ENDBRANCH  53  54
ENDBRANCH  52  53
ENDBRANCH  49  50
BRANCH  49  71
ATOM     71  CB  SER     7      -6.077  -0.272   3.912  1.00  0.00     0.216 C 
ATOM     72  OG  SER     7      -5.705  -1.404   3.125  1.00  0.00    -0.218 OA
ENDBRANCH  49  71
ENDBRANCH  47  49
ENDBRANCH  42  46
ENDBRANCH   1  39
TORSDOF 33
ENDMDL
MODEL 6
REMARK VINA RESULT:      -5.0     10.342     17.235
REMARK WARNING: 32 MAX_TORS EXCEEDED!!!
REMARK  33 active torsions:
REMARK  status: ('A' for Active; 'I' for Inactive)
REMARK    1  A    between atoms: CA_2  and  C_8 
REMARK    2  A    between atoms: CA_2  and  CB_3 
REMARK    3  A    between atoms: CB_3  and  CG_4 
REMARK    4  A    between atoms: CG_4  and  CD_5 
REMARK       I    between atoms: C_8  and  N_10 
REMARK    5  A    between atoms: N_10  and  CA_11 
REMARK    6  A    between atoms: CA_11  and  C_12 
REMARK       I    between atoms: C_12  and  N_14 
REMARK    7  A    between atoms: N_14  and  CA_15 
REMARK    8  A    between atoms: CA_15  and  C_20 
REMARK    9  A    between atoms: CA_15  and  CB_16 
REMARK   10  A    between atoms: CB_16  and  CG_17 
REMARK       I    between atoms: C_20  and  N_22 
REMARK   11  A    between atoms: N_22  and  CA_23 
REMARK   12  A    between atoms: CA_23  and  CB_24 
REMARK   13  A    between atoms: CA_23  and  C_28 
REMARK   14  A    between atoms: CB_24  and  CG_25 
REMARK       I    between atoms: C_28  and  N_30 
REMARK   15  A    between atoms: N_30  and  CA_31 
REMARK   16  A    between atoms: CA_31  and  CB_32 
REMARK   17  A    between atoms: CA_31  and  C_39 
REMARK   18  A    between atoms: CB_32  and  CG_33 
REMARK   19  A    between atoms: CG_33  and  CD_34 
REMARK   20  A    between atoms: CD_34  and  NE_35 
REMARK       I    between atoms: C_39  and  N_41 
REMARK   21  A    between atoms: CA_42  and  C_46 
REMARK       I    between atoms: C_46  and  N_48 
REMARK   22  A    between atoms: N_48  and  CA_49 
REMARK   23  A    between atoms: CA_49  and  C_52 
REMARK   24  A    between atoms: CA_49  and  CB_50 
REMARK       I    between atoms: C_52  and  N_54 
REMARK   25  A    between atoms: N_54  and  CA_55 
REMARK   26  A    between atoms: CA_55  and  C_56 
REMARK       I    between atoms: C_56  and  N_58 
REMARK   27  A    between atoms: N_58  and  CA_59 
REMARK   28  A    between atoms: CA_59  and  C_60 
REMARK       I    between atoms: C_60  and  N_62 
REMARK   29  A    between atoms: N_62  and  CA_63 
REMARK   30  A    between atoms: CA_63  and  CB_64 
REMARK   31  A    between atoms: CA_63  and  C_66 
REMARK       I    between atoms: C_66  and  N_68 
REMARK   32  A    between atoms: N_68  and  CA_69 
REMARK   33  A    between atoms: CA_69  and  C_70 
ROOT
ATOM      1  CA  ARG     5      -9.650  -5.004   7.401  1.00  0.00     0.185 C 
ENDROOT
BRANCH   1   2
ATOM      2  N   ARG     5      -9.144  -5.190   8.773  1.00  0.00    -0.229 NA
ATOM      3  C   ASN     4      -8.613  -6.303   9.255  1.00  0.00     0.275 C 
ATOM      4  O   ASN     4      -8.699  -7.400   8.712  1.00  0.00    -0.268 OA
BRANCH   3   5
ATOM      5  CA  ASN     4      -8.170  -6.162  10.726  1.00  0.00     0.196 C 
BRANCH   5   6
ATOM      6  N   ASN     4      -7.777  -4.768  11.022  1.00  0.00    -0.228 NA
ATOM      7  C   LEU     3      -6.758  -4.452  11.817  1.00  0.00     0.274 C 
ATOM      8  O   LEU     3      -6.025  -5.266  12.386  1.00  0.00    -0.268 OA
BRANCH   7   9
ATOM      9  CA  LEU     3      -6.484  -2.954  11.948  1.00  0.00     0.186 C 
BRANCH   9  10
ATOM     10  N   LEU     3      -7.566  -2.193  11.284  1.00  0.00    -0.229 NA
ATOM     11  C   GLY     2      -7.333  -1.140  10.495  1.00  0.00     0.277 C 
ATOM     12  O   GLY     2      -6.214  -0.812  10.129  1.00  0.00    -0.268 OA
BRANCH  11  13
ATOM     13  CA  GLY     2      -8.581  -0.441   9.915  1.00  0.00     0.218 C 
BRANCH  13  14
ATOM     14  N   GLY     2      -9.883  -1.142  10.011  1.00  0.00    -0.226 NA
ATOM     15  C   GLU     1     -10.882  -0.683  10.775  1.00  0.00     0.289 C 
ATOM     16  O   GLU     1     -10.822   0.420  11.294  1.00  0.00    -0.268 OA
BRANCH  15  17
ATOM     17  CA  GLU     1     -12.165  -1.543  10.922  1.00  0.00     0.381 C 
ATOM     18  N   GLU     1     -13.268  -0.847  11.608  1.00  0.00     0.626 N 
BRANCH  17  19
ATOM     19  CB  GLU     1     -12.593  -2.029   9.522  1.00  0.00     0.060 C 
BRANCH  19  20
ATOM     20  CG  GLU     1     -14.055  -2.437   9.280  1.00  0.00     0.100 C 
BRANCH  20  21
ATOM     21  CD  GLU     1     -14.775  -1.510   8.290  1.00  0.00     0.185 C 
ATOM     22  OE1 GLU     1     -15.357  -2.022   7.317  1.00  0.00    -0.647 OA
ATOM     23  OE2 GLU     1     -14.722  -0.282   8.482  1.00  0.00    -0.647 OA
ENDBRANCH  20  21
ENDBRANCH  19  20
ENDBRANCH  17  19
ENDBRANCH  15  17
ENDBRANCH  13  14
ENDBRANCH  11  13
ENDBRANCH   9  10
BRANCH   9  24
ATOM     24  CB  LEU     3      -6.410  -2.595  13.437  1.00  0.00     0.034 C 
BRANCH  24  25
ATOM     25  CG  LEU     3      -5.230  -1.675  13.797  1.00  0.00     0.002 C 
ATOM     26  CD1 LEU     3      -4.083  -1.911  12.816  1.00  0.00     0.000 C 
ATOM     27  CD2 LEU     3      -5.647  -0.201  13.771  1.00  0.00     0.000 C 
ENDBRANCH  24  25
ENDBRANCH   9  24
ENDBRANCH   7   9
ENDBRANCH   5   6
BRANCH   5  28
ATOM     28  CB  ASN     4      -9.274  -6.620  11.694  1.00  0.00     0.126 C 
BRANCH  28  29
ATOM     29  CG  ASN     4     -10.011  -5.457  12.386  1.00  0.00     0.276 C 
ATOM     30  ND2 ASN     4     -11.008  -4.927  11.728  1.00  0.00    -0.107 N 
ATOM     31  OD1 ASN     4      -9.757  -5.065  13.509  1.00  0.00    -0.269 OA
ENDBRANCH  28  29
ENDBRANCH   5  28
ENDBRANCH   3   5
ENDBRANCH   1   2
BRANCH   1  32
ATOM     32  CB  ARG     5     -11.158  -4.730   7.417  1.00  0.00     0.036 C 
BRANCH  32  33
ATOM     33  CG  ARG     5     -11.945  -5.649   8.353  1.00  0.00     0.029 C 
BRANCH  33  34
ATOM     34  CD  ARG     5     -12.638  -6.733   7.535  1.00  0.00     0.145 C 
BRANCH  34  35
ATOM     35  NE  ARG     5     -11.838  -7.981   7.477  1.00  0.00    -0.083 NA
ATOM     36  CZ  ARG     5     -11.238  -8.454   6.374  1.00  0.00     0.782 C 
ATOM     37  NH2 ARG     5     -10.335  -9.446   6.447  1.00  0.00     0.063 N 
ATOM     38  NH1 ARG     5     -11.417  -7.883   5.192  1.00  0.00     0.063 N 
ENDBRANCH  34  35
ENDBRANCH  33  34
ENDBRANCH  32  33
ENDBRANCH   1  32
BRANCH   1  39
ATOM     39  C   ARG     5      -8.919  -3.822   6.738  1.00  0.00     0.256 C 
ATOM     40  O   ARG     5      -8.277  -3.030   7.434  1.00  0.00    -0.270 OA
ATOM     41  N   PRO     6      -8.931  -3.768   5.402  1.00  0.00    -0.312 N 
ATOM     42  CA  PRO     6      -8.307  -2.685   4.609  1.00  0.00     0.165 C 
ATOM     43  CD  PRO     6      -9.415  -4.839   4.504  1.00  0.00     0.105 C 
ATOM     44  CB  PRO     6      -8.669  -3.005   3.157  1.00  0.00     0.034 C 
ATOM     45  CG  PRO     6      -8.764  -4.524   3.157  1.00  0.00     0.027 C 
BRANCH  42  46
ATOM     46  C   PRO     6      -8.850  -1.305   5.018  1.00  0.00     0.272 C 
ATOM     47  N   SER     7      -8.001  -0.348   5.365  1.00  0.00    -0.226 NA
ATOM     48  O   PRO     6     -10.067  -1.128   5.125  1.00  0.00    -0.269 OA
BRANCH  47  49
ATOM     49  CA  SER     7      -6.523  -0.450   5.418  1.00  0.00     0.219 C 
BRANCH  49  50
ATOM     50  C   SER     7      -5.928   0.396   6.558  1.00  0.00     0.277 C 
ATOM     51  O   SER     7      -6.682   0.995   7.317  1.00  0.00    -0.268 OA
ATOM     52  N   GLY     8      -4.633   0.228   6.786  1.00  0.00    -0.226 NA
BRANCH  52  53
ATOM     53  CA  GLY     8      -3.873   1.118   7.704  1.00  0.00     0.218 C 
BRANCH  53  54
ATOM     54  C   GLY     8      -2.352   0.914   7.819  1.00  0.00     0.277 C 
ATOM     55  N   GLY     9      -1.883   0.460   8.991  1.00  0.00    -0.226 NA
ATOM     56  O   GLY     8      -1.631   1.121   6.858  1.00  0.00    -0.268 OA
BRANCH  55  57
ATOM     57  CA  GLY     9      -0.444   0.255   9.258  1.00  0.00     0.218 C 
BRANCH  57  58
ATOM     58  C   GLY     9      -0.220  -0.781  10.386  1.00  0.00     0.277 C 
ATOM     59  O   GLY     9      -0.986  -0.803  11.341  1.00  0.00    -0.268 OA
ATOM     60  N   CYS    10       0.868  -1.535  10.435  1.00  0.00    -0.228 NA
BRANCH  60  61
ATOM     61  CA  CYS    10       2.031  -1.520   9.515  1.00  0.00     0.198 C 
BRANCH  61  62
ATOM     62  CB  CYS    10       3.341  -1.177  10.234  1.00  0.00     0.103 C 
ATOM     63  SG  CYS    10       3.670   0.576  10.624  1.00  0.00    -0.080 SA
ENDBRANCH  61  62
BRANCH  61  64
ATOM     64  C   CYS    10       2.309  -2.863   8.836  1.00  0.00     0.275 C 
ATOM     65  O   CYS    10       2.907  -2.881   7.762  1.00  0.00    -0.268 OA
ATOM     66  N   GLY    11       2.151  -3.907   9.633  1.00  0.00    -0.225 NA
BRANCH  66  67
ATOM     67  CA  GLY    11       1.673  -5.199   9.121  1.00  0.00     0.226 C 
BRANCH  67  68
ATOM     68  C   GLY    11       2.876  -6.145   9.255  1.00  0.00     0.211 C 
ATOM     69  O2  GLY    11       3.113  -6.554  10.412  1.00  0.00    -0.646 OA
ATOM     70  O1  GLY    11       3.261  -6.703   8.202  1.00  0.00    -0.646 OA
ENDBRANCH  67  68
ENDBRANCH  66  67
ENDBRANCH  61  64
ENDBRANCH  60  61
ENDBRANCH  57  58
ENDBRANCH  55  57
ENDBRANCH  53  54
ENDBRANCH  52  53
ENDBRANCH  49  50
BRANCH  49  71
ATOM     71  CB  SER     7      -5.876   0.023   4.115  1.00  0.00     0.216 C 
ATOM     72  OG  SER     7      -5.497  -1.103   3.323  1.00  0.00    -0.218 OA
ENDBRANCH  49  71
ENDBRANCH  47  49
ENDBRANCH  42  46
ENDBRANCH   1  39
TORSDOF 33
ENDMDL
MODEL 7
REMARK VINA RESULT:      -5.0     20.978     26.415
REMARK WARNING: 32 MAX_TORS EXCEEDED!!!
REMARK  33 active torsions:
REMARK  status: ('A' for Active; 'I' for Inactive)
REMARK    1  A    between atoms: CA_2  and  C_8 
REMARK    2  A    between atoms: CA_2  and  CB_3 
REMARK    3  A    between atoms: CB_3  and  CG_4 
REMARK    4  A    between atoms: CG_4  and  CD_5 
REMARK       I    between atoms: C_8  and  N_10 
REMARK    5  A    between atoms: N_10  and  CA_11 
REMARK    6  A    between atoms: CA_11  and  C_12 
REMARK       I    between atoms: C_12  and  N_14 
REMARK    7  A    between atoms: N_14  and  CA_15 
REMARK    8  A    between atoms: CA_15  and  C_20 
REMARK    9  A    between atoms: CA_15  and  CB_16 
REMARK   10  A    between atoms: CB_16  and  CG_17 
REMARK       I    between atoms: C_20  and  N_22 
REMARK   11  A    between atoms: N_22  and  CA_23 
REMARK   12  A    between atoms: CA_23  and  CB_24 
REMARK   13  A    between atoms: CA_23  and  C_28 
REMARK   14  A    between atoms: CB_24  and  CG_25 
REMARK       I    between atoms: C_28  and  N_30 
REMARK   15  A    between atoms: N_30  and  CA_31 
REMARK   16  A    between atoms: CA_31  and  CB_32 
REMARK   17  A    between atoms: CA_31  and  C_39 
REMARK   18  A    between atoms: CB_32  and  CG_33 
REMARK   19  A    between atoms: CG_33  and  CD_34 
REMARK   20  A    between atoms: CD_34  and  NE_35 
REMARK       I    between atoms: C_39  and  N_41 
REMARK   21  A    between atoms: CA_42  and  C_46 
REMARK       I    between atoms: C_46  and  N_48 
REMARK   22  A    between atoms: N_48  and  CA_49 
REMARK   23  A    between atoms: CA_49  and  C_52 
REMARK   24  A    between atoms: CA_49  and  CB_50 
REMARK       I    between atoms: C_52  and  N_54 
REMARK   25  A    between atoms: N_54  and  CA_55 
REMARK   26  A    between atoms: CA_55  and  C_56 
REMARK       I    between atoms: C_56  and  N_58 
REMARK   27  A    between atoms: N_58  and  CA_59 
REMARK   28  A    between atoms: CA_59  and  C_60 
REMARK       I    between atoms: C_60  and  N_62 
REMARK   29  A    between atoms: N_62  and  CA_63 
REMARK   30  A    between atoms: CA_63  and  CB_64 
REMARK   31  A    between atoms: CA_63  and  C_66 
REMARK       I    between atoms: C_66  and  N_68 
REMARK   32  A    between atoms: N_68  and  CA_69 
REMARK   33  A    between atoms: CA_69  and  C_70 
ROOT
ATOM      1  CA  ARG     5      -3.389 -22.438   2.534  1.00  0.00     0.185 C 
ENDROOT
BRANCH   1   2
ATOM      2  N   ARG     5      -3.853 -21.609   3.662  1.00  0.00    -0.229 NA
ATOM      3  C   ASN     4      -4.193 -20.331   3.593  1.00  0.00     0.275 C 
ATOM      4  O   ASN     4      -3.930 -19.598   2.644  1.00  0.00    -0.268 OA
BRANCH   3   5
ATOM      5  CA  ASN     4      -4.648 -19.761   4.952  1.00  0.00     0.196 C 
BRANCH   5   6
ATOM      6  N   ASN     4      -3.557 -18.992   5.588  1.00  0.00    -0.228 NA
ATOM      7  C   LEU     3      -2.703 -19.522   6.459  1.00  0.00     0.274 C 
ATOM      8  O   LEU     3      -2.710 -20.700   6.830  1.00  0.00    -0.268 OA
BRANCH   7   9
ATOM      9  CA  LEU     3      -1.616 -18.570   6.957  1.00  0.00     0.186 C 
BRANCH   9  10
ATOM     10  N   LEU     3      -2.241 -17.328   7.465  1.00  0.00    -0.229 NA
ATOM     11  C   GLY     2      -1.950 -16.118   6.977  1.00  0.00     0.277 C 
ATOM     12  O   GLY     2      -1.269 -15.945   5.977  1.00  0.00    -0.268 OA
BRANCH  11  13
ATOM     13  CA  GLY     2      -2.666 -14.928   7.649  1.00  0.00     0.218 C 
BRANCH  13  14
ATOM     14  N   GLY     2      -3.670 -15.220   8.702  1.00  0.00    -0.226 NA
ATOM     15  C   GLU     1      -3.526 -14.786   9.959  1.00  0.00     0.289 C 
ATOM     16  O   GLU     1      -2.649 -13.991  10.255  1.00  0.00    -0.268 OA
BRANCH  15  17
ATOM     17  CA  GLU     1      -4.554 -15.242  11.028  1.00  0.00     0.381 C 
ATOM     18  N   GLU     1      -5.477 -14.176  11.455  1.00  0.00     0.626 N 
BRANCH  17  19
ATOM     19  CB  GLU     1      -5.322 -16.463  10.481  1.00  0.00     0.060 C 
BRANCH  19  20
ATOM     20  CG  GLU     1      -6.788 -16.299  10.049  1.00  0.00     0.100 C 
BRANCH  20  21
ATOM     21  CD  GLU     1      -6.994 -16.526   8.544  1.00  0.00     0.185 C 
ATOM     22  OE1 GLU     1      -6.531 -17.563   8.034  1.00  0.00    -0.647 OA
ATOM     23  OE2 GLU     1      -7.587 -15.651   7.889  1.00  0.00    -0.647 OA
ENDBRANCH  20  21
ENDBRANCH  19  20
ENDBRANCH  17  19
ENDBRANCH  15  17
ENDBRANCH  13  14
ENDBRANCH  11  13
ENDBRANCH   9  10
BRANCH   9  24
ATOM     24  CB  LEU     3      -0.823 -19.266   8.070  1.00  0.00     0.034 C 
BRANCH  24  25
ATOM     25  CG  LEU     3       0.673 -18.903   8.087  1.00  0.00     0.002 C 
ATOM     26  CD1 LEU     3       1.493 -20.143   8.436  1.00  0.00     0.000 C 
ATOM     27  CD2 LEU     3       1.122 -18.339   6.735  1.00  0.00     0.000 C 
ENDBRANCH  24  25
ENDBRANCH   9  24
ENDBRANCH   7   9
ENDBRANCH   5   6
BRANCH   5  28
ATOM     28  CB  ASN     4      -5.902 -18.882   4.804  1.00  0.00     0.126 C 
BRANCH  28  29
ATOM     29  CG  ASN     4      -7.218 -19.683   4.767  1.00  0.00     0.276 C 
ATOM     30  ND2 ASN     4      -7.633 -20.168   5.907  1.00  0.00    -0.107 N 
ATOM     31  OD1 ASN     4      -7.900 -19.823   3.770  1.00  0.00    -0.269 OA
ENDBRANCH  28  29
ENDBRANCH   5  28
ENDBRANCH   3   5
ENDBRANCH   1   2
BRANCH   1  32
ATOM     32  CB  ARG     5      -1.951 -22.911   2.771  1.00  0.00     0.036 C 
BRANCH  32  33
ATOM     33  CG  ARG     5      -1.335 -22.394   4.071  1.00  0.00     0.029 C 
BRANCH  33  34
ATOM     34  CD  ARG     5      -1.178 -23.550   5.054  1.00  0.00     0.145 C 
BRANCH  34  35
ATOM     35  NE  ARG     5      -0.622 -24.760   4.402  1.00  0.00    -0.083 NA
ATOM     36  CZ  ARG     5       0.457 -25.432   4.830  1.00  0.00     0.782 C 
ATOM     37  NH2 ARG     5       0.757 -26.647   4.343  1.00  0.00     0.063 N 
ATOM     38  NH1 ARG     5       1.196 -24.983   5.835  1.00  0.00     0.063 N 
ENDBRANCH  34  35
ENDBRANCH  33  34
ENDBRANCH  32  33
ENDBRANCH   1  32
BRANCH   1  39
ATOM     39  C   ARG     5      -4.315 -23.658   2.377  1.00  0.00     0.256 C 
ATOM     40  O   ARG     5      -4.469 -24.437   3.323  1.00  0.00    -0.270 OA
ATOM     41  N   PRO     6      -5.000 -23.762   1.234  1.00  0.00    -0.312 N 
ATOM     42  CA  PRO     6      -5.905 -24.887   0.907  1.00  0.00     0.165 C 
ATOM     43  CD  PRO     6      -5.096 -22.716   0.193  1.00  0.00     0.105 C 
ATOM     44  CB  PRO     6      -6.367 -24.614  -0.526  1.00  0.00     0.034 C 
ATOM     45  CG  PRO     6      -6.343 -23.095  -0.608  1.00  0.00     0.027 C 
BRANCH  42  46
ATOM     46  C   PRO     6      -5.177 -26.239   1.000  1.00  0.00     0.272 C 
ATOM     47  N   SER     7      -5.767 -27.255   1.614  1.00  0.00    -0.226 NA
ATOM     48  O   PRO     6      -4.013 -26.342   0.602  1.00  0.00    -0.269 OA
BRANCH  47  49
ATOM     49  CA  SER     7      -7.102 -27.247   2.260  1.00  0.00     0.219 C 
BRANCH  49  50
ATOM     50  C   SER     7      -8.145 -28.021   1.434  1.00  0.00     0.277 C 
ATOM     51  O   SER     7      -8.184 -27.865   0.219  1.00  0.00    -0.268 OA
ATOM     52  N   GLY     8      -8.784 -28.991   2.074  1.00  0.00    -0.226 NA
BRANCH  52  53
ATOM     53  CA  GLY     8      -9.959 -29.684   1.483  1.00  0.00     0.218 C 
BRANCH  53  54
ATOM     54  C   GLY     8     -11.301 -28.931   1.441  1.00  0.00     0.277 C 
ATOM     55  N   GLY     9     -11.827 -28.552   2.615  1.00  0.00    -0.226 NA
ATOM     56  O   GLY     8     -11.821 -28.664   0.371  1.00  0.00    -0.268 OA
BRANCH  55  57
ATOM     57  CA  GLY     9     -13.126 -27.858   2.730  1.00  0.00     0.218 C 
BRANCH  57  58
ATOM     58  C   GLY     9     -13.780 -28.105   4.110  1.00  0.00     0.277 C 
ATOM     59  O   GLY     9     -14.603 -29.003   4.232  1.00  0.00    -0.268 OA
ATOM     60  N   CYS    10     -13.603 -27.272   5.126  1.00  0.00    -0.228 NA
BRANCH  60  61
ATOM     61  CA  CYS    10     -12.835 -26.003   5.142  1.00  0.00     0.198 C 
BRANCH  61  62
ATOM     62  CB  CYS    10     -13.724 -24.778   4.899  1.00  0.00     0.103 C 
ATOM     63  SG  CYS    10     -13.529 -23.879   3.322  1.00  0.00    -0.080 SA
ENDBRANCH  61  62
BRANCH  61  64
ATOM     64  C   CYS    10     -12.139 -25.711   6.472  1.00  0.00     0.275 C 
ATOM     65  O   CYS    10     -12.313 -24.621   7.016  1.00  0.00    -0.268 OA
ATOM     66  N   GLY    11     -11.658 -26.788   7.073  1.00  0.00    -0.225 NA
BRANCH  66  67
ATOM     67  CA  GLY    11     -10.435 -26.734   7.886  1.00  0.00     0.226 C 
BRANCH  67  68
ATOM     68  C   GLY    11      -9.302 -26.496   6.875  1.00  0.00     0.211 C 
ATOM     69  O2  GLY    11      -8.565 -25.514   7.113  1.00  0.00    -0.646 OA
ATOM     70  O1  GLY    11      -8.989 -27.472   6.156  1.00  0.00    -0.646 OA
ENDBRANCH  67  68
ENDBRANCH  66  67
ENDBRANCH  61  64
ENDBRANCH  60  61
ENDBRANCH  57  58
ENDBRANCH  55  57
ENDBRANCH  53  54
ENDBRANCH  52  53
ENDBRANCH  49  50
BRANCH  49  71
ATOM     71  CB  SER     7      -7.632 -25.824   2.447  1.00  0.00     0.216 C 
ATOM     72  OG  SER     7      -7.638 -25.486   3.834  1.00  0.00    -0.218 OA
ENDBRANCH  49  71
ENDBRANCH  47  49
ENDBRANCH  42  46
ENDBRANCH   1  39
TORSDOF 33
ENDMDL
MODEL 8
REMARK VINA RESULT:      -5.0      5.027      8.985
REMARK WARNING: 32 MAX_TORS EXCEEDED!!!
REMARK  33 active torsions:
REMARK  status: ('A' for Active; 'I' for Inactive)
REMARK    1  A    between atoms: CA_2  and  C_8 
REMARK    2  A    between atoms: CA_2  and  CB_3 
REMARK    3  A    between atoms: CB_3  and  CG_4 
REMARK    4  A    between atoms: CG_4  and  CD_5 
REMARK       I    between atoms: C_8  and  N_10 
REMARK    5  A    between atoms: N_10  and  CA_11 
REMARK    6  A    between atoms: CA_11  and  C_12 
REMARK       I    between atoms: C_12  and  N_14 
REMARK    7  A    between atoms: N_14  and  CA_15 
REMARK    8  A    between atoms: CA_15  and  C_20 
REMARK    9  A    between atoms: CA_15  and  CB_16 
REMARK   10  A    between atoms: CB_16  and  CG_17 
REMARK       I    between atoms: C_20  and  N_22 
REMARK   11  A    between atoms: N_22  and  CA_23 
REMARK   12  A    between atoms: CA_23  and  CB_24 
REMARK   13  A    between atoms: CA_23  and  C_28 
REMARK   14  A    between atoms: CB_24  and  CG_25 
REMARK       I    between atoms: C_28  and  N_30 
REMARK   15  A    between atoms: N_30  and  CA_31 
REMARK   16  A    between atoms: CA_31  and  CB_32 
REMARK   17  A    between atoms: CA_31  and  C_39 
REMARK   18  A    between atoms: CB_32  and  CG_33 
REMARK   19  A    between atoms: CG_33  and  CD_34 
REMARK   20  A    between atoms: CD_34  and  NE_35 
REMARK       I    between atoms: C_39  and  N_41 
REMARK   21  A    between atoms: CA_42  and  C_46 
REMARK       I    between atoms: C_46  and  N_48 
REMARK   22  A    between atoms: N_48  and  CA_49 
REMARK   23  A    between atoms: CA_49  and  C_52 
REMARK   24  A    between atoms: CA_49  and  CB_50 
REMARK       I    between atoms: C_52  and  N_54 
REMARK   25  A    between atoms: N_54  and  CA_55 
REMARK   26  A    between atoms: CA_55  and  C_56 
REMARK       I    between atoms: C_56  and  N_58 
REMARK   27  A    between atoms: N_58  and  CA_59 
REMARK   28  A    between atoms: CA_59  and  C_60 
REMARK       I    between atoms: C_60  and  N_62 
REMARK   29  A    between atoms: N_62  and  CA_63 
REMARK   30  A    between atoms: CA_63  and  CB_64 
REMARK   31  A    between atoms: CA_63  and  C_66 
REMARK       I    between atoms: C_66  and  N_68 
REMARK   32  A    between atoms: N_68  and  CA_69 
REMARK   33  A    between atoms: CA_69  and  C_70 
ROOT
ATOM      1  CA  ARG     5       9.534  -6.510  10.255  1.00  0.00     0.185 C 
ENDROOT
BRANCH   1   2
ATOM      2  N   ARG     5       9.681  -5.437   9.254  1.00  0.00    -0.229 NA
ATOM      3  C   ASN     4      10.393  -4.332   9.406  1.00  0.00     0.275 C 
ATOM      4  O   ASN     4      10.820  -3.929  10.484  1.00  0.00    -0.268 OA
BRANCH   3   5
ATOM      5  CA  ASN     4      10.350  -3.420   8.163  1.00  0.00     0.196 C 
BRANCH   5   6
ATOM      6  N   ASN     4      11.717  -3.121   7.687  1.00  0.00    -0.228 NA
ATOM      7  C   LEU     3      12.016  -2.052   6.953  1.00  0.00     0.274 C 
ATOM      8  O   LEU     3      11.206  -1.192   6.593  1.00  0.00    -0.268 OA
BRANCH   7   9
ATOM      9  CA  LEU     3      13.498  -1.899   6.610  1.00  0.00     0.186 C 
BRANCH   9  10
ATOM     10  N   LEU     3      13.762  -2.487   5.278  1.00  0.00    -0.229 NA
ATOM     11  C   GLY     2      14.915  -3.085   4.965  1.00  0.00     0.277 C 
ATOM     12  O   GLY     2      15.784  -3.335   5.787  1.00  0.00    -0.268 OA
BRANCH  11  13
ATOM     13  CA  GLY     2      15.034  -3.609   3.519  1.00  0.00     0.218 C 
BRANCH  13  14
ATOM     14  N   GLY     2      14.902  -2.635   2.409  1.00  0.00    -0.226 NA
ATOM     15  C   GLU     1      15.919  -1.857   2.023  1.00  0.00     0.289 C 
ATOM     16  O   GLU     1      17.046  -2.032   2.456  1.00  0.00    -0.268 OA
BRANCH  15  17
ATOM     17  CA  GLU     1      15.662  -0.774   0.941  1.00  0.00     0.381 C 
ATOM     18  N   GLU     1      16.789  -0.587   0.011  1.00  0.00     0.626 N 
BRANCH  17  19
ATOM     19  CB  GLU     1      14.366  -1.133   0.186  1.00  0.00     0.060 C 
BRANCH  19  20
ATOM     20  CG  GLU     1      13.344  -0.029  -0.126  1.00  0.00     0.100 C 
BRANCH  20  21
ATOM     21  CD  GLU     1      12.051  -0.166   0.691  1.00  0.00     0.185 C 
ATOM     22  OE1 GLU     1      10.964   0.018   0.113  1.00  0.00    -0.647 OA
ATOM     23  OE2 GLU     1      12.142  -0.424   1.904  1.00  0.00    -0.647 OA
ENDBRANCH  20  21
ENDBRANCH  19  20
ENDBRANCH  17  19
ENDBRANCH  15  17
ENDBRANCH  13  14
ENDBRANCH  11  13
ENDBRANCH   9  10
BRANCH   9  24
ATOM     24  CB  LEU     3      13.854  -0.407   6.619  1.00  0.00     0.034 C 
BRANCH  24  25
ATOM     25  CG  LEU     3      15.226  -0.100   7.247  1.00  0.00     0.002 C 
ATOM     26  CD1 LEU     3      15.312   1.390   7.576  1.00  0.00     0.000 C 
ATOM     27  CD2 LEU     3      15.454  -0.931   8.514  1.00  0.00     0.000 C 
ENDBRANCH  24  25
ENDBRANCH   9  24
ENDBRANCH   7   9
ENDBRANCH   5   6
BRANCH   5  28
ATOM     28  CB  ASN     4       9.519  -4.049   7.031  1.00  0.00     0.126 C 
BRANCH  28  29
ATOM     29  CG  ASN     4       8.222  -3.279   6.714  1.00  0.00     0.276 C 
ATOM     30  ND2 ASN     4       8.208  -2.603   5.596  1.00  0.00    -0.107 N 
ATOM     31  OD1 ASN     4       7.221  -3.324   7.403  1.00  0.00    -0.269 OA
ENDBRANCH  28  29
ENDBRANCH   5  28
ENDBRANCH   3   5
ENDBRANCH   1   2
BRANCH   1  32
ATOM     32  CB  ARG     5       8.187  -7.222  10.086  1.00  0.00     0.036 C 
BRANCH  32  33
ATOM     33  CG  ARG     5       7.522  -6.976   8.731  1.00  0.00     0.029 C 
BRANCH  33  34
ATOM     34  CD  ARG     5       6.050  -6.639   8.941  1.00  0.00     0.145 C 
BRANCH  34  35
ATOM     35  NE  ARG     5       5.846  -5.750  10.111  1.00  0.00    -0.083 NA
ATOM     36  CZ  ARG     5       4.737  -5.721  10.865  1.00  0.00     0.782 C 
ATOM     37  NH2 ARG     5       4.717  -5.077  12.044  1.00  0.00     0.063 N 
ATOM     38  NH1 ARG     5       3.663  -6.427  10.541  1.00  0.00     0.063 N 
ENDBRANCH  34  35
ENDBRANCH  33  34
ENDBRANCH  32  33
ENDBRANCH   1  32
BRANCH   1  39
ATOM     39  C   ARG     5      10.678  -7.527  10.092  1.00  0.00     0.256 C 
ATOM     40  O   ARG     5      10.818  -8.126   9.021  1.00  0.00    -0.270 OA
ATOM     41  N   PRO     6      11.544  -7.640  11.104  1.00  0.00    -0.312 N 
ATOM     42  CA  PRO     6      12.678  -8.591  11.126  1.00  0.00     0.165 C 
ATOM     43  CD  PRO     6      11.613  -6.743  12.278  1.00  0.00     0.105 C 
ATOM     44  CB  PRO     6      13.304  -8.422  12.510  1.00  0.00     0.034 C 
ATOM     45  CG  PRO     6      13.019  -6.964  12.839  1.00  0.00     0.027 C 
BRANCH  42  46
ATOM     46  C   PRO     6      12.202 -10.038  10.912  1.00  0.00     0.272 C 
ATOM     47  N   SER     7      12.695 -10.743   9.903  1.00  0.00    -0.226 NA
ATOM     48  O   PRO     6      11.291 -10.498  11.607  1.00  0.00    -0.269 OA
BRANCH  47  49
ATOM     49  CA  SER     7      13.690 -10.286   8.903  1.00  0.00     0.219 C 
BRANCH  49  50
ATOM     50  C   SER     7      13.244 -10.598   7.463  1.00  0.00     0.277 C 
ATOM     51  O   SER     7      12.742  -9.708   6.784  1.00  0.00    -0.268 OA
ATOM     52  N   GLY     8      13.653 -11.759   6.971  1.00  0.00    -0.226 NA
BRANCH  52  53
ATOM     53  CA  GLY     8      13.135 -12.295   5.685  1.00  0.00     0.218 C 
BRANCH  53  54
ATOM     54  C   GLY     8      12.374 -13.633   5.709  1.00  0.00     0.277 C 
ATOM     55  N   GLY     9      11.858 -14.064   4.548  1.00  0.00    -0.226 NA
ATOM     56  O   GLY     8      12.295 -14.275   6.743  1.00  0.00    -0.268 OA
BRANCH  55  57
ATOM     57  CA  GLY     9      11.071 -15.309   4.430  1.00  0.00     0.218 C 
BRANCH  57  58
ATOM     58  C   GLY     9       9.584 -15.073   4.785  1.00  0.00     0.277 C 
ATOM     59  O   GLY     9       9.024 -14.060   4.385  1.00  0.00    -0.268 OA
ATOM     60  N   CYS    10       8.939 -15.848   5.646  1.00  0.00    -0.228 NA
BRANCH  60  61
ATOM     61  CA  CYS    10       9.477 -16.992   6.422  1.00  0.00     0.198 C 
BRANCH  61  62
ATOM     62  CB  CYS    10       9.191 -16.866   7.923  1.00  0.00     0.103 C 
ATOM     63  SG  CYS    10       7.790 -15.818   8.442  1.00  0.00    -0.080 SA
ENDBRANCH  61  62
BRANCH  61  64
ATOM     64  C   CYS    10       8.881 -18.347   6.032  1.00  0.00     0.275 C 
ATOM     65  O   CYS    10       9.028 -19.307   6.786  1.00  0.00    -0.268 OA
ATOM     66  N   GLY    11       7.988 -18.278   5.059  1.00  0.00    -0.225 NA
BRANCH  66  67
ATOM     67  CA  GLY    11       7.828 -19.367   4.085  1.00  0.00     0.226 C 
BRANCH  67  68
ATOM     68  C   GLY    11       7.749 -18.664   2.720  1.00  0.00     0.211 C 
ATOM     69  O2  GLY    11       6.698 -18.862   2.072  1.00  0.00    -0.646 OA
ATOM     70  O1  GLY    11       8.527 -17.698   2.550  1.00  0.00    -0.646 OA
ENDBRANCH  67  68
ENDBRANCH  66  67
ENDBRANCH  61  64
ENDBRANCH  60  61
ENDBRANCH  57  58
ENDBRANCH  55  57
ENDBRANCH  53  54
ENDBRANCH  52  53
ENDBRANCH  49  50
BRANCH  49  71
ATOM     71  CB  SER     7      15.051 -10.953   9.113  1.00  0.00     0.216 C 
ATOM     72  OG  SER     7      16.096 -10.004   8.896  1.00  0.00    -0.218 OA
ENDBRANCH  49  71
ENDBRANCH  47  49
ENDBRANCH  42  46
ENDBRANCH   1  39
TORSDOF 33
ENDMDL
MODEL 9
REMARK VINA RESULT:      -5.0      1.883      2.456
REMARK WARNING: 32 MAX_TORS EXCEEDED!!!
REMARK  33 active torsions:
REMARK  status: ('A' for Active; 'I' for Inactive)
REMARK    1  A    between atoms: CA_2  and  C_8 
REMARK    2  A    between atoms: CA_2  and  CB_3 
REMARK    3  A    between atoms: CB_3  and  CG_4 
REMARK    4  A    between atoms: CG_4  and  CD_5 
REMARK       I    between atoms: C_8  and  N_10 
REMARK    5  A    between atoms: N_10  and  CA_11 
REMARK    6  A    between atoms: CA_11  and  C_12 
REMARK       I    between atoms: C_12  and  N_14 
REMARK    7  A    between atoms: N_14  and  CA_15 
REMARK    8  A    between atoms: CA_15  and  C_20 
REMARK    9  A    between atoms: CA_15  and  CB_16 
REMARK   10  A    between atoms: CB_16  and  CG_17 
REMARK       I    between atoms: C_20  and  N_22 
REMARK   11  A    between atoms: N_22  and  CA_23 
REMARK   12  A    between atoms: CA_23  and  CB_24 
REMARK   13  A    between atoms: CA_23  and  C_28 
REMARK   14  A    between atoms: CB_24  and  CG_25 
REMARK       I    between atoms: C_28  and  N_30 
REMARK   15  A    between atoms: N_30  and  CA_31 
REMARK   16  A    between atoms: CA_31  and  CB_32 
REMARK   17  A    between atoms: CA_31  and  C_39 
REMARK   18  A    between atoms: CB_32  and  CG_33 
REMARK   19  A    between atoms: CG_33  and  CD_34 
REMARK   20  A    between atoms: CD_34  and  NE_35 
REMARK       I    between atoms: C_39  and  N_41 
REMARK   21  A    between atoms: CA_42  and  C_46 
REMARK       I    between atoms: C_46  and  N_48 
REMARK   22  A    between atoms: N_48  and  CA_49 
REMARK   23  A    between atoms: CA_49  and  C_52 
REMARK   24  A    between atoms: CA_49  and  CB_50 
REMARK       I    between atoms: C_52  and  N_54 
REMARK   25  A    between atoms: N_54  and  CA_55 
REMARK   26  A    between atoms: CA_55  and  C_56 
REMARK       I    between atoms: C_56  and  N_58 
REMARK   27  A    between atoms: N_58  and  CA_59 
REMARK   28  A    between atoms: CA_59  and  C_60 
REMARK       I    between atoms: C_60  and  N_62 
REMARK   29  A    between atoms: N_62  and  CA_63 
REMARK   30  A    between atoms: CA_63  and  CB_64 
REMARK   31  A    between atoms: CA_63  and  C_66 
REMARK       I    between atoms: C_66  and  N_68 
REMARK   32  A    between atoms: N_68  and  CA_69 
REMARK   33  A    between atoms: CA_69  and  C_70 
ROOT
ATOM      1  CA  ARG     5       2.497  -0.518   9.921  1.00  0.00     0.185 C 
ENDROOT
BRANCH   1   2
ATOM      2  N   ARG     5       3.756   0.198   9.644  1.00  0.00    -0.229 NA
ATOM      3  C   ASN     4       4.389   1.000  10.487  1.00  0.00     0.275 C 
ATOM      4  O   ASN     4       3.891   1.454  11.512  1.00  0.00    -0.268 OA
BRANCH   3   5
ATOM      5  CA  ASN     4       5.688   1.582   9.892  1.00  0.00     0.196 C 
BRANCH   5   6
ATOM      6  N   ASN     4       6.611   0.498   9.493  1.00  0.00    -0.228 NA
ATOM      7  C   LEU     3       7.694   0.169  10.192  1.00  0.00     0.274 C 
ATOM      8  O   LEU     3       8.050   0.711  11.242  1.00  0.00    -0.268 OA
BRANCH   7   9
ATOM      9  CA  LEU     3       8.484  -1.016   9.637  1.00  0.00     0.186 C 
BRANCH   9  10
ATOM     10  N   LEU     3       8.874  -0.739   8.236  1.00  0.00    -0.229 NA
ATOM     11  C   GLY     2       8.556  -1.548   7.221  1.00  0.00     0.277 C 
ATOM     12  O   GLY     2       7.792  -2.495   7.334  1.00  0.00    -0.268 OA
BRANCH  11  13
ATOM     13  CA  GLY     2       9.076  -1.125   5.831  1.00  0.00     0.218 C 
BRANCH  13  14
ATOM     14  N   GLY     2      10.428  -0.524   5.744  1.00  0.00    -0.226 NA
ATOM     15  C   GLU     1      11.535  -1.273   5.679  1.00  0.00     0.289 C 
ATOM     16  O   GLU     1      11.470  -2.481   5.521  1.00  0.00    -0.268 OA
BRANCH  15  17
ATOM     17  CA  GLU     1      12.917  -0.568   5.720  1.00  0.00     0.381 C 
ATOM     18  N   GLU     1      12.831   0.903   5.712  1.00  0.00     0.626 N 
BRANCH  17  19
ATOM     19  CB  GLU     1      13.691  -1.077   6.953  1.00  0.00     0.060 C 
BRANCH  19  20
ATOM     20  CG  GLU     1      13.043  -0.983   8.342  1.00  0.00     0.100 C 
BRANCH  20  21
ATOM     21  CD  GLU     1      13.011  -2.331   9.077  1.00  0.00     0.185 C 
ATOM     22  OE1 GLU     1      13.229  -2.342  10.302  1.00  0.00    -0.647 OA
ATOM     23  OE2 GLU     1      12.800  -3.362   8.415  1.00  0.00    -0.647 OA
ENDBRANCH  20  21
ENDBRANCH  19  20
ENDBRANCH  17  19
ENDBRANCH  15  17
ENDBRANCH  13  14
ENDBRANCH  11  13
ENDBRANCH   9  10
BRANCH   9  24
ATOM     24  CB  LEU     3       9.728  -1.231  10.508  1.00  0.00     0.034 C 
BRANCH  24  25
ATOM     25  CG  LEU     3       9.659  -2.492  11.388  1.00  0.00     0.002 C 
ATOM     26  CD1 LEU     3       9.420  -2.085  12.841  1.00  0.00     0.000 C 
ATOM     27  CD2 LEU     3       8.548  -3.437  10.919  1.00  0.00     0.000 C 
ENDBRANCH  24  25
ENDBRANCH   9  24
ENDBRANCH   7   9
ENDBRANCH   5   6
BRANCH   5  28
ATOM     28  CB  ASN     4       5.398   2.500   8.693  1.00  0.00     0.126 C 
BRANCH  28  29
ATOM     29  CG  ASN     4       6.289   3.757   8.646  1.00  0.00     0.276 C 
ATOM     30  ND2 ASN     4       5.673   4.907   8.711  1.00  0.00    -0.107 N 
ATOM     31  OD1 ASN     4       7.504   3.726   8.617  1.00  0.00    -0.269 OA
ENDBRANCH  28  29
ENDBRANCH   5  28
ENDBRANCH   3   5
ENDBRANCH   1   2
BRANCH   1  32
ATOM     32  CB  ARG     5       1.532  -0.385   8.737  1.00  0.00     0.036 C 
BRANCH  32  33
ATOM     33  CG  ARG     5       0.210   0.298   9.090  1.00  0.00     0.029 C 
BRANCH  33  34
ATOM     34  CD  ARG     5       0.313   1.790   8.789  1.00  0.00     0.145 C 
BRANCH  34  35
ATOM     35  NE  ARG     5       1.031   2.523   9.860  1.00  0.00    -0.083 NA
ATOM     36  CZ  ARG     5       1.785   3.615   9.666  1.00  0.00     0.782 C 
ATOM     37  NH2 ARG     5       2.201   4.364  10.700  1.00  0.00     0.063 N 
ATOM     38  NH1 ARG     5       2.045   4.067   8.447  1.00  0.00     0.063 N 
ENDBRANCH  34  35
ENDBRANCH  33  34
ENDBRANCH  32  33
ENDBRANCH   1  32
BRANCH   1  39
ATOM     39  C   ARG     5       2.796  -2.006  10.178  1.00  0.00     0.256 C 
ATOM     40  O   ARG     5       3.682  -2.573   9.531  1.00  0.00    -0.270 OA
ATOM     41  N   PRO     6       2.138  -2.598  11.179  1.00  0.00    -0.312 N 
ATOM     42  CA  PRO     6       2.281  -4.027  11.538  1.00  0.00     0.165 C 
ATOM     43  CD  PRO     6       1.297  -1.906  12.180  1.00  0.00     0.105 C 
ATOM     44  CB  PRO     6       1.267  -4.252  12.660  1.00  0.00     0.034 C 
ATOM     45  CG  PRO     6       1.208  -2.894  13.344  1.00  0.00     0.027 C 
BRANCH  42  46
ATOM     46  C   PRO     6       1.981  -4.940  10.337  1.00  0.00     0.272 C 
ATOM     47  N   SER     7       2.920  -5.768   9.899  1.00  0.00    -0.226 NA
ATOM     48  O   PRO     6       0.917  -4.824   9.723  1.00  0.00    -0.269 OA
BRANCH  47  49
ATOM     49  CA  SER     7       4.290  -5.925  10.444  1.00  0.00     0.219 C 
BRANCH  49  50
ATOM     50  C   SER     7       5.252  -6.543   9.414  1.00  0.00     0.277 C 
ATOM     51  O   SER     7       4.846  -6.782   8.281  1.00  0.00    -0.268 OA
ATOM     52  N   GLY     8       6.532  -6.558   9.757  1.00  0.00    -0.226 NA
BRANCH  52  53
ATOM     53  CA  GLY     8       7.549  -7.305   8.970  1.00  0.00     0.218 C 
BRANCH  53  54
ATOM     54  C   GLY     8       8.915  -6.638   8.729  1.00  0.00     0.277 C 
ATOM     55  N   GLY     9      10.006  -7.325   9.096  1.00  0.00    -0.226 NA
ATOM     56  O   GLY     8       8.977  -5.547   8.185  1.00  0.00    -0.268 OA
BRANCH  55  57
ATOM     57  CA  GLY     9      11.378  -6.793   8.961  1.00  0.00     0.218 C 
BRANCH  57  58
ATOM     58  C   GLY     9      11.958  -6.372  10.332  1.00  0.00     0.277 C 
ATOM     59  O   GLY     9      11.599  -5.316  10.837  1.00  0.00    -0.268 OA
ATOM     60  N   CYS    10      12.957  -7.032  10.901  1.00  0.00    -0.228 NA
BRANCH  60  61
ATOM     61  CA  CYS    10      13.699  -8.201  10.367  1.00  0.00     0.198 C 
BRANCH  61  62
ATOM     62  CB  CYS    10      12.768  -9.355   9.975  1.00  0.00     0.103 C 
ATOM     63  SG  CYS    10      11.716 -10.085  11.276  1.00  0.00    -0.080 SA
ENDBRANCH  61  62
BRANCH  61  64
ATOM     64  C   CYS    10      14.497  -7.906   9.096  1.00  0.00     0.275 C 
ATOM     65  O   CYS    10      15.442  -7.122   9.148  1.00  0.00    -0.268 OA
ATOM     66  N   GLY    11      14.284  -8.772   8.118  1.00  0.00    -0.225 NA
BRANCH  66  67
ATOM     67  CA  GLY    11      14.328  -8.364   6.707  1.00  0.00     0.226 C 
BRANCH  67  68
ATOM     68  C   GLY    11      13.583  -9.477   5.953  1.00  0.00     0.211 C 
ATOM     69  O2  GLY    11      12.744 -10.114   6.625  1.00  0.00    -0.646 OA
ATOM     70  O1  GLY    11      13.597  -9.402   4.703  1.00  0.00    -0.646 OA
ENDBRANCH  67  68
ENDBRANCH  66  67
ENDBRANCH  61  64
ENDBRANCH  60  61
ENDBRANCH  57  58
ENDBRANCH  55  57
ENDBRANCH  53  54
ENDBRANCH  52  53
ENDBRANCH  49  50
BRANCH  49  71
ATOM     71  CB  SER     7       4.307  -6.825  11.681  1.00  0.00     0.216 C 
ATOM     72  OG  SER     7       4.918  -6.138  12.774  1.00  0.00    -0.218 OA
ENDBRANCH  49  71
ENDBRANCH  47  49
ENDBRANCH  42  46
ENDBRANCH   1  39
TORSDOF 33
ENDMDL
