MODEL 1
REMARK VINA RESULT:      -3.0      0.000      0.000
REMARK WARNING: 32 MAX_TORS EXCEEDED!!!
REMARK  42 active torsions:
REMARK  status: ('A' for Active; 'I' for Inactive)
REMARK    1  A    between atoms: CA_2  and  CB_3 
REMARK    2  A    between atoms: CA_2  and  C_11 
REMARK    3  A    between atoms: CB_3  and  CG_4 
REMARK       I    between atoms: C_11  and  N_13 
REMARK    4  A    between atoms: N_13  and  CA_14 
REMARK    5  A    between atoms: CA_14  and  CB_15 
REMARK    6  A    between atoms: CA_14  and  C_19 
REMARK    7  A    between atoms: CB_15  and  CG_16 
REMARK       I    between atoms: C_19  and  N_21 
REMARK    8  A    between atoms: CA_22  and  C_26 
REMARK       I    between atoms: C_26  and  N_28 
REMARK    9  A    between atoms: N_28  and  CA_29 
REMARK   10  A    between atoms: CA_29  and  C_35 
REMARK   11  A    between atoms: CA_29  and  CB_30 
REMARK   12  A    between atoms: CB_30  and  CG_31 
REMARK   13  A    between atoms: CG_31  and  CD_32 
REMARK       I    between atoms: C_35  and  N_37 
REMARK   14  A    between atoms: N_37  and  CA_38 
REMARK   15  A    between atoms: CA_38  and  CB_39 
REMARK   16  A    between atoms: CA_38  and  C_47 
REMARK   17  A    between atoms: CB_39  and  CG_40 
REMARK       I    between atoms: C_47  and  N_49 
REMARK   18  A    between atoms: N_49  and  CA_50 
REMARK   19  A    between atoms: CA_50  and  CB_51 
REMARK   20  A    between atoms: CA_50  and  C_58 
REMARK   21  A    between atoms: CB_51  and  CG_52 
REMARK   22  A    between atoms: CG_52  and  CD_53 
REMARK   23  A    between atoms: CD_53  and  NE_54 
REMARK       I    between atoms: C_58  and  N_60 
REMARK   24  A    between atoms: N_60  and  CA_61 
REMARK   25  A    between atoms: CA_61  and  C_66 
REMARK   26  A    between atoms: CA_61  and  CB_62 
REMARK   27  A    between atoms: CB_62  and  CG_63 
REMARK       I    between atoms: C_66  and  N_68 
REMARK   28  A    between atoms: N_68  and  CA_69 
REMARK   29  A    between atoms: CA_69  and  CB_70 
REMARK   30  A    between atoms: CA_69  and  C_77 
REMARK   31  A    between atoms: CB_70  and  CG_71 
REMARK       I    between atoms: C_77  and  N_79 
REMARK   32  A    between atoms: N_79  and  CA_80 
REMARK   33  A    between atoms: CA_80  and  CB_81 
REMARK   34  A    between atoms: CA_80  and  C_91 
REMARK   35  A    between atoms: CB_81  and  CG_82 
REMARK       I    between atoms: C_91  and  N_93 
REMARK   36  A    between atoms: N_93  and  CA_94 
REMARK   37  A    between atoms: CA_94  and  C_95 
REMARK       I    between atoms: C_95  and  N_97 
REMARK   38  A    between atoms: N_97  and  CA_98 
REMARK   39  A    between atoms: CA_98  and  C_101 
REMARK   40  A    between atoms: CA_98  and  CB_99 
REMARK       I    between atoms: C_101  and  N_103 
REMARK   41  A    between atoms: N_103  and  CA_104 
REMARK   42  A    between atoms: CA_104  and  C_105 
ROOT
ATOM      1  CA  ARG     6      -6.230   5.457   9.072  1.00  0.00     0.186 C 
ENDROOT
BRANCH   1   2
ATOM      2  N   ARG     6      -5.321   6.577   9.414  1.00  0.00    -0.229 NA
ATOM      3  C   TYR     5      -4.259   6.894   8.662  1.00  0.00     0.275 C 
ATOM      4  O   TYR     5      -3.986   6.294   7.622  1.00  0.00    -0.268 OA
BRANCH   3   5
ATOM      5  CA  TYR     5      -3.441   8.124   9.088  1.00  0.00     0.191 C 
BRANCH   5   6
ATOM      6  N   TYR     5      -2.000   8.027   8.742  1.00  0.00    -0.228 NA
ATOM      7  C   GLU     4      -1.080   7.504   9.569  1.00  0.00     0.274 C 
ATOM      8  O   GLU     4      -1.377   6.939  10.614  1.00  0.00    -0.268 OA
BRANCH   7   9
ATOM      9  CA  GLU     4       0.342   7.353   8.992  1.00  0.00     0.187 C 
BRANCH   9  10
ATOM     10  CB  GLU     4       1.147   6.355   9.841  1.00  0.00     0.045 C 
BRANCH  10  11
ATOM     11  CG  GLU     4       2.356   5.689   9.148  1.00  0.00     0.100 C 
BRANCH  11  12
ATOM     12  CD  GLU     4       2.207   4.183   8.934  1.00  0.00     0.185 C 
ATOM     13  OE1 GLU     4       1.040   3.710   8.951  1.00  0.00    -0.647 OA
ATOM     14  OE2 GLU     4       3.192   3.475   9.224  1.00  0.00    -0.647 OA
ENDBRANCH  11  12
ENDBRANCH  10  11
ENDBRANCH   9  10
BRANCH   9  15
ATOM     15  N   GLU     4       1.085   8.627   8.932  1.00  0.00    -0.229 NA
ATOM     16  C   PRO     3       1.100   9.609   9.825  1.00  0.00     0.272 C 
ATOM     17  O   PRO     3       0.793   9.453  11.008  1.00  0.00    -0.269 OA
BRANCH  16  18
ATOM     18  CA  PRO     3       1.979  10.808   9.462  1.00  0.00     0.165 C 
ATOM     19  N   PRO     3       3.406  10.490   9.244  1.00  0.00    -0.312 N 
ATOM     20  CD  PRO     3       3.919  11.266   8.086  1.00  0.00     0.105 C 
ATOM     21  C   ASP     2       4.143   9.732  10.077  1.00  0.00     0.257 C 
ATOM     22  CG  PRO     3       2.781  12.241   7.748  1.00  0.00     0.027 C 
ATOM     23  CB  PRO     3       1.522  11.491   8.175  1.00  0.00     0.034 C 
ATOM     24  O   ASP     2       3.709   9.432  11.199  1.00  0.00    -0.270 OA
BRANCH  21  25
ATOM     25  CA  ASP     2       5.649   9.536   9.794  1.00  0.00     0.195 C 
BRANCH  25  26
ATOM     26  CB  ASP     2       6.371   8.448  10.630  1.00  0.00     0.132 C 
BRANCH  26  27
ATOM     27  CG  ASP     2       7.154   7.493   9.708  1.00  0.00     0.188 C 
ATOM     28  OD2 ASP     2       7.057   6.271   9.988  1.00  0.00    -0.647 OA
ATOM     29  OD1 ASP     2       8.203   7.946   9.187  1.00  0.00    -0.647 OA
ENDBRANCH  26  27
ENDBRANCH  25  26
BRANCH  25  30
ATOM     30  N   ASP     2       6.432  10.745  10.102  1.00  0.00    -0.228 NA
ATOM     31  C   TYR     1       7.338  11.309   9.337  1.00  0.00     0.289 C 
ATOM     32  O   TYR     1       7.623  11.035   8.167  1.00  0.00    -0.268 OA
BRANCH  31  33
ATOM     33  CA  TYR     1       8.097  12.412  10.068  1.00  0.00     0.385 C 
ATOM     34  N   TYR     1       9.206  11.784  10.805  1.00  0.00     0.626 N 
BRANCH  33  35
ATOM     35  CB  TYR     1       8.582  13.406   9.015  1.00  0.00     0.075 C 
BRANCH  35  36
ATOM     36  CG  TYR     1       7.710  14.668   8.933  1.00  0.00    -0.019 A 
ATOM     37  CD2 TYR     1       6.327  14.588   8.872  1.00  0.00    -0.002 A 
ATOM     38  CE2 TYR     1       5.558  15.740   8.935  1.00  0.00     0.027 A 
ATOM     39  CZ  TYR     1       6.194  16.976   9.053  1.00  0.00     0.131 A 
ATOM     40  CE1 TYR     1       7.575  17.051   9.072  1.00  0.00     0.027 A 
ATOM     41  OH  TYR     1       5.473  18.088   9.304  1.00  0.00    -0.190 OA
ATOM     42  CD1 TYR     1       8.344  15.899   9.009  1.00  0.00    -0.002 A 
ENDBRANCH  35  36
ENDBRANCH  33  35
ENDBRANCH  31  33
ENDBRANCH  25  30
ENDBRANCH  21  25
ENDBRANCH  16  18
ENDBRANCH   9  15
ENDBRANCH   7   9
ENDBRANCH   5   6
BRANCH   5  43
ATOM     43  CB  TYR     5      -4.040   9.412   8.498  1.00  0.00     0.060 C 
BRANCH  43  44
ATOM     44  CG  TYR     5      -3.185  10.651   8.815  1.00  0.00    -0.020 A 
ATOM     45  CD2 TYR     5      -2.656  11.425   7.791  1.00  0.00    -0.002 A 
ATOM     46  CE2 TYR     5      -1.889  12.549   8.087  1.00  0.00     0.027 A 
ATOM     47  CZ  TYR     5      -1.652  12.897   9.407  1.00  0.00     0.131 A 
ATOM     48  CE1 TYR     5      -2.193  12.137  10.439  1.00  0.00     0.027 A 
ATOM     49  OH  TYR     5      -0.797  13.900   9.703  1.00  0.00    -0.190 OA
ATOM     50  CD1 TYR     5      -2.953  11.007  10.139  1.00  0.00    -0.002 A 
ENDBRANCH  43  44
ENDBRANCH   5  43
ENDBRANCH   3   5
ENDBRANCH   1   2
BRANCH   1  51
ATOM     51  CB  ARG     6      -6.612   4.612  10.284  1.00  0.00     0.036 C 
BRANCH  51  52
ATOM     52  CG  ARG     6      -7.350   3.320   9.924  1.00  0.00     0.029 C 
BRANCH  52  53
ATOM     53  CD  ARG     6      -6.459   2.420   9.072  1.00  0.00     0.145 C 
BRANCH  53  54
ATOM     54  NE  ARG     6      -5.439   1.753   9.899  1.00  0.00    -0.083 NA
ATOM     55  CZ  ARG     6      -4.360   1.097   9.430  1.00  0.00     0.782 C 
ATOM     56  NH2 ARG     6      -3.541   0.456  10.265  1.00  0.00     0.063 N 
ATOM     57  NH1 ARG     6      -4.146   1.008   8.122  1.00  0.00     0.063 N 
ENDBRANCH  53  54
ENDBRANCH  52  53
ENDBRANCH  51  52
ENDBRANCH   1  51
BRANCH   1  58
ATOM     58  C   ARG     6      -7.543   5.939   8.442  1.00  0.00     0.274 C 
ATOM     59  N   ASN     7      -8.342   6.643   9.239  1.00  0.00    -0.228 NA
ATOM     60  O   ARG     6      -7.786   5.655   7.268  1.00  0.00    -0.268 OA
BRANCH  59  61
ATOM     61  CA  ASN     7      -9.599   7.272   8.783  1.00  0.00     0.196 C 
BRANCH  61  62
ATOM     62  C   ASN     7     -10.664   6.217   8.427  1.00  0.00     0.275 C 
ATOM     63  N   PHE     8     -11.409   5.741   9.436  1.00  0.00    -0.228 NA
ATOM     64  O   ASN     7     -11.028   6.167   7.268  1.00  0.00    -0.268 OA
BRANCH  63  65
ATOM     65  CA  PHE     8     -12.536   4.789   9.283  1.00  0.00     0.191 C 
BRANCH  65  66
ATOM     66  CB  PHE     8     -12.692   4.014  10.598  1.00  0.00     0.060 C 
BRANCH  66  67
ATOM     67  CG  PHE     8     -13.109   2.541  10.422  1.00  0.00    -0.020 A 
ATOM     68  CD1 PHE     8     -12.234   1.639   9.834  1.00  0.00    -0.004 A 
ATOM     69  CE1 PHE     8     -12.649   0.331   9.583  1.00  0.00    -0.000 A 
ATOM     70  CZ  PHE     8     -13.929  -0.063   9.936  1.00  0.00    -0.000 A 
ATOM     71  CE2 PHE     8     -14.804   0.835  10.538  1.00  0.00    -0.000 A 
ATOM     72  CD2 PHE     8     -14.388   2.143  10.790  1.00  0.00    -0.004 A 
ENDBRANCH  66  67
ENDBRANCH  65  66
BRANCH  65  73
ATOM     73  C   PHE     8     -13.871   5.426   8.833  1.00  0.00     0.275 C 
ATOM     74  N   TRP     9     -14.774   5.649   9.789  1.00  0.00    -0.228 NA
ATOM     75  O   PHE     8     -14.175   5.483   7.639  1.00  0.00    -0.268 OA
BRANCH  74  76
ATOM     76  CA  TRP     9     -16.045   6.365   9.520  1.00  0.00     0.191 C 
BRANCH  76  77
ATOM     77  CB  TRP     9     -15.809   7.392   8.400  1.00  0.00     0.062 C 
BRANCH  77  78
ATOM     78  CG  TRP     9     -15.656   8.822   8.917  1.00  0.00     0.001 A 
ATOM     79  CD1 TRP     9     -16.518   9.816   8.727  1.00  0.00     0.095 A 
ATOM     80  NE1 TRP     9     -15.947  10.971   9.046  1.00  0.00    -0.244 NA
ATOM     81  CE2 TRP     9     -14.710  10.752   9.467  1.00  0.00     0.081 A 
ATOM     82  CD2 TRP     9     -14.476   9.388   9.389  1.00  0.00     0.015 A 
ATOM     83  CZ2 TRP     9     -13.669  11.606   9.831  1.00  0.00     0.019 A 
ATOM     84  CE3 TRP     9     -13.218   8.867   9.652  1.00  0.00     0.001 A 
ATOM     85  CZ3 TRP     9     -12.176   9.718  10.002  1.00  0.00     0.000 A 
ATOM     86  CH2 TRP     9     -12.413  11.087  10.108  1.00  0.00     0.002 A 
ENDBRANCH  77  78
ENDBRANCH  76  77
BRANCH  76  87
ATOM     87  C   TRP     9     -17.246   5.444   9.205  1.00  0.00     0.275 C 
ATOM     88  O   TRP     9     -18.325   5.913   8.857  1.00  0.00    -0.268 OA
ATOM     89  N   GLY    10     -17.006   4.134   9.236  1.00  0.00    -0.226 NA
BRANCH  89  90
ATOM     90  CA  GLY    10     -18.018   3.089   8.920  1.00  0.00     0.218 C 
BRANCH  90  91
ATOM     91  C   GLY    10     -19.032   2.765  10.029  1.00  0.00     0.277 C 
ATOM     92  N   CYS    11     -20.297   2.664   9.624  1.00  0.00    -0.228 NA
ATOM     93  O   GLY    10     -18.694   2.780  11.207  1.00  0.00    -0.268 OA
BRANCH  92  94
ATOM     94  CA  CYS    11     -21.470   2.340  10.466  1.00  0.00     0.198 C 
BRANCH  94  95
ATOM     95  C   CYS    11     -22.052   0.998   9.980  1.00  0.00     0.275 C 
ATOM     96  O   CYS    11     -23.261   0.905   9.796  1.00  0.00    -0.268 OA
ATOM     97  N   GLY    12     -21.220  -0.033   9.984  1.00  0.00    -0.225 NA
BRANCH  97  98
ATOM     98  CA  GLY    12     -21.618  -1.386   9.567  1.00  0.00     0.226 C 
BRANCH  98  99
ATOM     99  C   GLY    12     -21.145  -2.380  10.653  1.00  0.00     0.211 C 
ATOM    100  O1  GLY    12     -20.201  -2.000  11.392  1.00  0.00    -0.646 OA
ATOM    101  O2  GLY    12     -21.746  -3.465  10.748  1.00  0.00    -0.646 OA
ENDBRANCH  98  99
ENDBRANCH  97  98
ENDBRANCH  94  95
BRANCH  94 102
ATOM    102  CB  CYS    11     -22.575   3.371  10.248  1.00  0.00     0.103 C 
ATOM    103  SG  CYS    11     -22.035   5.021   9.654  1.00  0.00    -0.080 SA
ENDBRANCH  94 102
ENDBRANCH  92  94
ENDBRANCH  90  91
ENDBRANCH  89  90
ENDBRANCH  76  87
ENDBRANCH  74  76
ENDBRANCH  65  73
ENDBRANCH  63  65
ENDBRANCH  61  62
BRANCH  61 104
ATOM    104  CB  ASN     7      -9.351   8.218   7.601  1.00  0.00     0.126 C 
BRANCH 104 105
ATOM    105  CG  ASN     7      -8.662   9.546   7.967  1.00  0.00     0.276 C 
ATOM    106  ND2 ASN     7      -9.398  10.627   7.853  1.00  0.00    -0.107 N 
ATOM    107  OD1 ASN     7      -7.467   9.677   8.199  1.00  0.00    -0.269 OA
ENDBRANCH 104 105
ENDBRANCH  61 104
ENDBRANCH  59  61
ENDBRANCH   1  58
TORSDOF 42
ENDMDL
MODEL 2
REMARK VINA RESULT:      -2.4      1.617      2.075
REMARK WARNING: 32 MAX_TORS EXCEEDED!!!
REMARK  42 active torsions:
REMARK  status: ('A' for Active; 'I' for Inactive)
REMARK    1  A    between atoms: CA_2  and  CB_3 
REMARK    2  A    between atoms: CA_2  and  C_11 
REMARK    3  A    between atoms: CB_3  and  CG_4 
REMARK       I    between atoms: C_11  and  N_13 
REMARK    4  A    between atoms: N_13  and  CA_14 
REMARK    5  A    between atoms: CA_14  and  CB_15 
REMARK    6  A    between atoms: CA_14  and  C_19 
REMARK    7  A    between atoms: CB_15  and  CG_16 
REMARK       I    between atoms: C_19  and  N_21 
REMARK    8  A    between atoms: CA_22  and  C_26 
REMARK       I    between atoms: C_26  and  N_28 
REMARK    9  A    between atoms: N_28  and  CA_29 
REMARK   10  A    between atoms: CA_29  and  C_35 
REMARK   11  A    between atoms: CA_29  and  CB_30 
REMARK   12  A    between atoms: CB_30  and  CG_31 
REMARK   13  A    between atoms: CG_31  and  CD_32 
REMARK       I    between atoms: C_35  and  N_37 
REMARK   14  A    between atoms: N_37  and  CA_38 
REMARK   15  A    between atoms: CA_38  and  CB_39 
REMARK   16  A    between atoms: CA_38  and  C_47 
REMARK   17  A    between atoms: CB_39  and  CG_40 
REMARK       I    between atoms: C_47  and  N_49 
REMARK   18  A    between atoms: N_49  and  CA_50 
REMARK   19  A    between atoms: CA_50  and  CB_51 
REMARK   20  A    between atoms: CA_50  and  C_58 
REMARK   21  A    between atoms: CB_51  and  CG_52 
REMARK   22  A    between atoms: CG_52  and  CD_53 
REMARK   23  A    between atoms: CD_53  and  NE_54 
REMARK       I    between atoms: C_58  and  N_60 
REMARK   24  A    between atoms: N_60  and  CA_61 
REMARK   25  A    between atoms: CA_61  and  C_66 
REMARK   26  A    between atoms: CA_61  and  CB_62 
REMARK   27  A    between atoms: CB_62  and  CG_63 
REMARK       I    between atoms: C_66  and  N_68 
REMARK   28  A    between atoms: N_68  and  CA_69 
REMARK   29  A    between atoms: CA_69  and  CB_70 
REMARK   30  A    between atoms: CA_69  and  C_77 
REMARK   31  A    between atoms: CB_70  and  CG_71 
REMARK       I    between atoms: C_77  and  N_79 
REMARK   32  A    between atoms: N_79  and  CA_80 
REMARK   33  A    between atoms: CA_80  and  CB_81 
REMARK   34  A    between atoms: CA_80  and  C_91 
REMARK   35  A    between atoms: CB_81  and  CG_82 
REMARK       I    between atoms: C_91  and  N_93 
REMARK   36  A    between atoms: N_93  and  CA_94 
REMARK   37  A    between atoms: CA_94  and  C_95 
REMARK       I    between atoms: C_95  and  N_97 
REMARK   38  A    between atoms: N_97  and  CA_98 
REMARK   39  A    between atoms: CA_98  and  C_101 
REMARK   40  A    between atoms: CA_98  and  CB_99 
REMARK       I    between atoms: C_101  and  N_103 
REMARK   41  A    between atoms: N_103  and  CA_104 
REMARK   42  A    between atoms: CA_104  and  C_105 
ROOT
ATOM      1  CA  ARG     6      -6.215   5.059   9.417  1.00  0.00     0.186 C 
ENDROOT
BRANCH   1   2
ATOM      2  N   ARG     6      -5.229   6.116   9.742  1.00  0.00    -0.229 NA
ATOM      3  C   TYR     5      -4.157   6.358   8.976  1.00  0.00     0.275 C 
ATOM      4  O   TYR     5      -3.938   5.737   7.935  1.00  0.00    -0.268 OA
BRANCH   3   5
ATOM      5  CA  TYR     5      -3.253   7.531   9.386  1.00  0.00     0.191 C 
BRANCH   5   6
ATOM      6  N   TYR     5      -1.924   7.517   8.721  1.00  0.00    -0.228 NA
ATOM      7  C   GLU     4      -0.879   6.813   9.185  1.00  0.00     0.274 C 
ATOM      8  O   GLU     4      -0.977   6.018  10.112  1.00  0.00    -0.268 OA
BRANCH   7   9
ATOM      9  CA  GLU     4       0.379   6.801   8.293  1.00  0.00     0.187 C 
BRANCH   9  10
ATOM     10  CB  GLU     4       1.144   5.481   8.486  1.00  0.00     0.045 C 
BRANCH  10  11
ATOM     11  CG  GLU     4       2.560   5.416   7.872  1.00  0.00     0.100 C 
BRANCH  11  12
ATOM     12  CD  GLU     4       3.461   4.344   8.484  1.00  0.00     0.185 C 
ATOM     13  OE1 GLU     4       4.625   4.233   8.018  1.00  0.00    -0.647 OA
ATOM     14  OE2 GLU     4       2.892   3.376   9.029  1.00  0.00    -0.647 OA
ENDBRANCH  11  12
ENDBRANCH  10  11
ENDBRANCH   9  10
BRANCH   9  15
ATOM     15  N   GLU     4       1.299   7.922   8.568  1.00  0.00    -0.229 NA
ATOM     16  C   PRO     3       1.656   8.420   9.746  1.00  0.00     0.272 C 
ATOM     17  O   PRO     3       1.567   7.790  10.801  1.00  0.00    -0.269 OA
BRANCH  16  18
ATOM     18  CA  PRO     3       2.633   9.596   9.689  1.00  0.00     0.165 C 
ATOM     19  N   PRO     3       4.013   9.238   9.295  1.00  0.00    -0.312 N 
ATOM     20  CD  PRO     3       4.556  10.275   8.381  1.00  0.00     0.105 C 
ATOM     21  C   ASP     2       4.703   8.210   9.823  1.00  0.00     0.257 C 
ATOM     22  CG  PRO     3       3.507  11.397   8.414  1.00  0.00     0.027 C 
ATOM     23  CB  PRO     3       2.198  10.662   8.687  1.00  0.00     0.034 C 
ATOM     24  O   ASP     2       4.284   7.630  10.836  1.00  0.00    -0.270 OA
BRANCH  21  25
ATOM     25  CA  ASP     2       6.171   7.982   9.398  1.00  0.00     0.195 C 
BRANCH  25  26
ATOM     26  CB  ASP     2       6.742   6.559   9.631  1.00  0.00     0.132 C 
BRANCH  26  27
ATOM     27  CG  ASP     2       8.256   6.534   9.349  1.00  0.00     0.188 C 
ATOM     28  OD2 ASP     2       8.580   6.448   8.137  1.00  0.00    -0.647 OA
ATOM     29  OD1 ASP     2       8.988   6.036  10.240  1.00  0.00    -0.647 OA
ENDBRANCH  26  27
ENDBRANCH  25  26
BRANCH  25  30
ATOM     30  N   ASP     2       7.106   8.828  10.160  1.00  0.00    -0.228 NA
ATOM     31  C   TYR     1       7.989   9.663   9.664  1.00  0.00     0.289 C 
ATOM     32  O   TYR     1       8.129  10.013   8.488  1.00  0.00    -0.268 OA
BRANCH  31  33
ATOM     33  CA  TYR     1       8.929  10.203  10.738  1.00  0.00     0.385 C 
ATOM     34  N   TYR     1      10.304  10.119  10.217  1.00  0.00     0.626 N 
BRANCH  33  35
ATOM     35  CB  TYR     1       8.503  11.638  11.036  1.00  0.00     0.075 C 
BRANCH  35  36
ATOM     36  CG  TYR     1       9.212  12.672  10.148  1.00  0.00    -0.019 A 
ATOM     37  CD2 TYR     1      10.594  12.771  10.116  1.00  0.00    -0.002 A 
ATOM     38  CE2 TYR     1      11.213  13.617   9.208  1.00  0.00     0.027 A 
ATOM     39  CZ  TYR     1      10.427  14.369   8.335  1.00  0.00     0.131 A 
ATOM     40  CE1 TYR     1       9.047  14.296   8.400  1.00  0.00     0.027 A 
ATOM     41  OH  TYR     1      11.000  15.052   7.324  1.00  0.00    -0.190 OA
ATOM     42  CD1 TYR     1       8.429  13.450   9.308  1.00  0.00    -0.002 A 
ENDBRANCH  35  36
ENDBRANCH  33  35
ENDBRANCH  31  33
ENDBRANCH  25  30
ENDBRANCH  21  25
ENDBRANCH  16  18
ENDBRANCH   9  15
ENDBRANCH   7   9
ENDBRANCH   5   6
BRANCH   5  43
ATOM     43  CB  TYR     5      -3.953   8.878   9.137  1.00  0.00     0.060 C 
BRANCH  43  44
ATOM     44  CG  TYR     5      -3.196  10.056   9.773  1.00  0.00    -0.020 A 
ATOM     45  CD2 TYR     5      -3.771  10.793  10.801  1.00  0.00    -0.002 A 
ATOM     46  CE2 TYR     5      -3.075  11.852  11.375  1.00  0.00     0.027 A 
ATOM     47  CZ  TYR     5      -1.805  12.175  10.923  1.00  0.00     0.131 A 
ATOM     48  CE1 TYR     5      -1.216  11.430   9.907  1.00  0.00     0.027 A 
ATOM     49  OH  TYR     5      -1.182  13.284  11.377  1.00  0.00    -0.190 OA
ATOM     50  CD1 TYR     5      -1.919  10.374   9.326  1.00  0.00    -0.002 A 
ENDBRANCH  43  44
ENDBRANCH   5  43
ENDBRANCH   3   5
ENDBRANCH   1   2
BRANCH   1  51
ATOM     51  CB  ARG     6      -6.732   4.329  10.652  1.00  0.00     0.036 C 
BRANCH  51  52
ATOM     52  CG  ARG     6      -6.878   2.818  10.457  1.00  0.00     0.029 C 
BRANCH  52  53
ATOM     53  CD  ARG     6      -5.528   2.127  10.632  1.00  0.00     0.145 C 
BRANCH  53  54
ATOM     54  NE  ARG     6      -4.877   1.905   9.330  1.00  0.00    -0.083 NA
ATOM     55  CZ  ARG     6      -3.653   2.346   8.984  1.00  0.00     0.782 C 
ATOM     56  NH2 ARG     6      -3.190   2.159   7.746  1.00  0.00     0.063 N 
ATOM     57  NH1 ARG     6      -2.924   3.048   9.845  1.00  0.00     0.063 N 
ENDBRANCH  53  54
ENDBRANCH  52  53
ENDBRANCH  51  52
ENDBRANCH   1  51
BRANCH   1  58
ATOM     58  C   ARG     6      -7.446   5.611   8.686  1.00  0.00     0.274 C 
ATOM     59  N   ASN     7      -8.220   6.429   9.395  1.00  0.00    -0.228 NA
ATOM     60  O   ARG     6      -7.652   5.277   7.518  1.00  0.00    -0.268 OA
BRANCH  59  61
ATOM     61  CA  ASN     7      -9.391   7.133   8.833  1.00  0.00     0.196 C 
BRANCH  61  62
ATOM     62  C   ASN     7     -10.514   6.149   8.449  1.00  0.00     0.275 C 
ATOM     63  N   PHE     8     -11.278   5.681   9.447  1.00  0.00    -0.228 NA
ATOM     64  O   ASN     7     -10.886   6.158   7.292  1.00  0.00    -0.268 OA
BRANCH  63  65
ATOM     65  CA  PHE     8     -12.456   4.797   9.270  1.00  0.00     0.191 C 
BRANCH  65  66
ATOM     66  CB  PHE     8     -12.543   3.863  10.485  1.00  0.00     0.060 C 
BRANCH  66  67
ATOM     67  CG  PHE     8     -12.032   2.433  10.226  1.00  0.00    -0.020 A 
ATOM     68  CD1 PHE     8     -12.851   1.510   9.589  1.00  0.00    -0.004 A 
ATOM     69  CE1 PHE     8     -12.427   0.189   9.446  1.00  0.00    -0.000 A 
ATOM     70  CZ  PHE     8     -11.185  -0.191   9.927  1.00  0.00    -0.000 A 
ATOM     71  CE2 PHE     8     -10.358   0.735  10.554  1.00  0.00    -0.000 A 
ATOM     72  CD2 PHE     8     -10.781   2.056  10.697  1.00  0.00    -0.004 A 
ENDBRANCH  66  67
ENDBRANCH  65  66
BRANCH  65  73
ATOM     73  C   PHE     8     -13.792   5.532   9.019  1.00  0.00     0.275 C 
ATOM     74  N   TRP     9     -14.616   5.639  10.063  1.00  0.00    -0.228 NA
ATOM     75  O   PHE     8     -14.176   5.774   7.872  1.00  0.00    -0.268 OA
BRANCH  74  76
ATOM     76  CA  TRP     9     -15.873   6.425   9.996  1.00  0.00     0.191 C 
BRANCH  76  77
ATOM     77  CB  TRP     9     -15.596   7.742   9.252  1.00  0.00     0.062 C 
BRANCH  77  78
ATOM     78  CG  TRP     9     -15.243   8.899  10.186  1.00  0.00     0.001 A 
ATOM     79  CD1 TRP     9     -16.102   9.597  10.923  1.00  0.00     0.095 A 
ATOM     80  NE1 TRP     9     -15.514  10.696  11.376  1.00  0.00    -0.244 NA
ATOM     81  CE2 TRP     9     -14.256  10.729  10.961  1.00  0.00     0.081 A 
ATOM     82  CD2 TRP     9     -14.043   9.602  10.183  1.00  0.00     0.015 A 
ATOM     83  CZ2 TRP     9     -13.246  11.684  11.076  1.00  0.00     0.019 A 
ATOM     84  CE3 TRP     9     -12.845   9.422   9.507  1.00  0.00     0.001 A 
ATOM     85  CZ3 TRP     9     -11.842  10.379   9.609  1.00  0.00     0.000 A 
ATOM     86  CH2 TRP     9     -12.042  11.501  10.412  1.00  0.00     0.002 A 
ENDBRANCH  77  78
ENDBRANCH  76  77
BRANCH  76  87
ATOM     87  C   TRP     9     -17.072   5.666   9.385  1.00  0.00     0.275 C 
ATOM     88  O   TRP     9     -17.811   6.209   8.569  1.00  0.00    -0.268 OA
ATOM     89  N   GLY    10     -17.186   4.381   9.717  1.00  0.00    -0.226 NA
BRANCH  89  90
ATOM     90  CA  GLY    10     -18.246   3.473   9.200  1.00  0.00     0.218 C 
BRANCH  90  91
ATOM     91  C   GLY    10     -19.488   3.297  10.089  1.00  0.00     0.277 C 
ATOM     92  N   CYS    11     -20.601   2.957   9.441  1.00  0.00    -0.228 NA
ATOM     93  O   GLY    10     -19.460   3.623  11.270  1.00  0.00    -0.268 OA
BRANCH  92  94
ATOM     94  CA  CYS    11     -21.929   2.701  10.043  1.00  0.00     0.198 C 
BRANCH  94  95
ATOM     95  C   CYS    11     -22.191   1.183   9.997  1.00  0.00     0.275 C 
ATOM     96  O   CYS    11     -21.254   0.423   9.777  1.00  0.00    -0.268 OA
ATOM     97  N   GLY    12     -23.463   0.812  10.002  1.00  0.00    -0.225 NA
BRANCH  97  98
ATOM     98  CA  GLY    12     -23.887  -0.596   9.946  1.00  0.00     0.226 C 
BRANCH  98  99
ATOM     99  C   GLY    12     -24.244  -0.929   8.479  1.00  0.00     0.211 C 
ATOM    100  O1  GLY    12     -24.378   0.045   7.696  1.00  0.00    -0.646 OA
ATOM    101  O2  GLY    12     -24.340  -2.129   8.163  1.00  0.00    -0.646 OA
ENDBRANCH  98  99
ENDBRANCH  97  98
ENDBRANCH  94  95
BRANCH  94 102
ATOM    102  CB  CYS    11     -23.024   3.335   9.188  1.00  0.00     0.103 C 
ATOM    103  SG  CYS    11     -23.528   5.036   9.651  1.00  0.00    -0.080 SA
ENDBRANCH  94 102
ENDBRANCH  92  94
ENDBRANCH  90  91
ENDBRANCH  89  90
ENDBRANCH  76  87
ENDBRANCH  74  76
ENDBRANCH  65  73
ENDBRANCH  63  65
ENDBRANCH  61  62
BRANCH  61 104
ATOM    104  CB  ASN     7      -8.994   8.003   7.633  1.00  0.00     0.126 C 
BRANCH 104 105
ATOM    105  CG  ASN     7      -8.364   9.360   7.998  1.00  0.00     0.276 C 
ATOM    106  ND2 ASN     7      -9.066  10.424   7.685  1.00  0.00    -0.107 N 
ATOM    107  OD1 ASN     7      -7.219   9.516   8.404  1.00  0.00    -0.269 OA
ENDBRANCH 104 105
ENDBRANCH  61 104
ENDBRANCH  59  61
ENDBRANCH   1  58
TORSDOF 42
ENDMDL
MODEL 3
REMARK VINA RESULT:      -2.1     18.711     24.517
REMARK WARNING: 32 MAX_TORS EXCEEDED!!!
REMARK  42 active torsions:
REMARK  status: ('A' for Active; 'I' for Inactive)
REMARK    1  A    between atoms: CA_2  and  CB_3 
REMARK    2  A    between atoms: CA_2  and  C_11 
REMARK    3  A    between atoms: CB_3  and  CG_4 
REMARK       I    between atoms: C_11  and  N_13 
REMARK    4  A    between atoms: N_13  and  CA_14 
REMARK    5  A    between atoms: CA_14  and  CB_15 
REMARK    6  A    between atoms: CA_14  and  C_19 
REMARK    7  A    between atoms: CB_15  and  CG_16 
REMARK       I    between atoms: C_19  and  N_21 
REMARK    8  A    between atoms: CA_22  and  C_26 
REMARK       I    between atoms: C_26  and  N_28 
REMARK    9  A    between atoms: N_28  and  CA_29 
REMARK   10  A    between atoms: CA_29  and  C_35 
REMARK   11  A    between atoms: CA_29  and  CB_30 
REMARK   12  A    between atoms: CB_30  and  CG_31 
REMARK   13  A    between atoms: CG_31  and  CD_32 
REMARK       I    between atoms: C_35  and  N_37 
REMARK   14  A    between atoms: N_37  and  CA_38 
REMARK   15  A    between atoms: CA_38  and  CB_39 
REMARK   16  A    between atoms: CA_38  and  C_47 
REMARK   17  A    between atoms: CB_39  and  CG_40 
REMARK       I    between atoms: C_47  and  N_49 
REMARK   18  A    between atoms: N_49  and  CA_50 
REMARK   19  A    between atoms: CA_50  and  CB_51 
REMARK   20  A    between atoms: CA_50  and  C_58 
REMARK   21  A    between atoms: CB_51  and  CG_52 
REMARK   22  A    between atoms: CG_52  and  CD_53 
REMARK   23  A    between atoms: CD_53  and  NE_54 
REMARK       I    between atoms: C_58  and  N_60 
REMARK   24  A    between atoms: N_60  and  CA_61 
REMARK   25  A    between atoms: CA_61  and  C_66 
REMARK   26  A    between atoms: CA_61  and  CB_62 
REMARK   27  A    between atoms: CB_62  and  CG_63 
REMARK       I    between atoms: C_66  and  N_68 
REMARK   28  A    between atoms: N_68  and  CA_69 
REMARK   29  A    between atoms: CA_69  and  CB_70 
REMARK   30  A    between atoms: CA_69  and  C_77 
REMARK   31  A    between atoms: CB_70  and  CG_71 
REMARK       I    between atoms: C_77  and  N_79 
REMARK   32  A    between atoms: N_79  and  CA_80 
REMARK   33  A    between atoms: CA_80  and  CB_81 
REMARK   34  A    between atoms: CA_80  and  C_91 
REMARK   35  A    between atoms: CB_81  and  CG_82 
REMARK       I    between atoms: C_91  and  N_93 
REMARK   36  A    between atoms: N_93  and  CA_94 
REMARK   37  A    between atoms: CA_94  and  C_95 
REMARK       I    between atoms: C_95  and  N_97 
REMARK   38  A    between atoms: N_97  and  CA_98 
REMARK   39  A    between atoms: CA_98  and  C_101 
REMARK   40  A    between atoms: CA_98  and  CB_99 
REMARK       I    between atoms: C_101  and  N_103 
REMARK   41  A    between atoms: N_103  and  CA_104 
REMARK   42  A    between atoms: CA_104  and  C_105 
ROOT
ATOM      1  CA  ARG     6     -11.851 -18.187   8.228  1.00  0.00     0.186 C 
ENDROOT
BRANCH   1   2
ATOM      2  N   ARG     6     -10.562 -18.154   8.958  1.00  0.00    -0.229 NA
ATOM      3  C   TYR     5      -9.652 -17.190   8.764  1.00  0.00     0.275 C 
ATOM      4  O   TYR     5      -9.840 -16.253   7.987  1.00  0.00    -0.268 OA
BRANCH   3   5
ATOM      5  CA  TYR     5      -8.390 -17.232   9.640  1.00  0.00     0.191 C 
BRANCH   5   6
ATOM      6  N   TYR     5      -7.749 -15.904   9.821  1.00  0.00    -0.228 NA
ATOM      7  C   GLU     4      -6.888 -15.378   8.934  1.00  0.00     0.274 C 
ATOM      8  O   GLU     4      -6.672 -15.887   7.841  1.00  0.00    -0.268 OA
BRANCH   7   9
ATOM      9  CA  GLU     4      -6.429 -13.931   9.211  1.00  0.00     0.187 C 
BRANCH   9  10
ATOM     10  CB  GLU     4      -6.231 -13.183   7.883  1.00  0.00     0.045 C 
BRANCH  10  11
ATOM     11  CG  GLU     4      -7.461 -12.426   7.336  1.00  0.00     0.100 C 
BRANCH  11  12
ATOM     12  CD  GLU     4      -7.899 -11.236   8.189  1.00  0.00     0.185 C 
ATOM     13  OE1 GLU     4      -9.086 -11.232   8.609  1.00  0.00    -0.647 OA
ATOM     14  OE2 GLU     4      -7.269 -10.171   8.032  1.00  0.00    -0.647 OA
ENDBRANCH  11  12
ENDBRANCH  10  11
ENDBRANCH   9  10
BRANCH   9  15
ATOM     15  N   GLU     4      -5.175 -13.857   9.986  1.00  0.00    -0.229 NA
ATOM     16  C   PRO     3      -3.956 -14.223   9.609  1.00  0.00     0.272 C 
ATOM     17  O   PRO     3      -3.618 -14.336   8.429  1.00  0.00    -0.269 OA
BRANCH  16  18
ATOM     18  CA  PRO     3      -2.859 -14.016  10.656  1.00  0.00     0.165 C 
ATOM     19  N   PRO     3      -1.633 -14.812  10.436  1.00  0.00    -0.312 N 
ATOM     20  CD  PRO     3      -0.439 -13.983  10.743  1.00  0.00     0.105 C 
ATOM     21  C   ASP     2      -1.630 -16.127  10.155  1.00  0.00     0.257 C 
ATOM     22  CG  PRO     3      -1.015 -12.706  11.374  1.00  0.00     0.027 C 
ATOM     23  CB  PRO     3      -2.387 -12.566  10.720  1.00  0.00     0.034 C 
ATOM     24  O   ASP     2      -2.668 -16.796  10.276  1.00  0.00    -0.270 OA
BRANCH  21  25
ATOM     25  CA  ASP     2      -0.284 -16.876  10.030  1.00  0.00     0.195 C 
BRANCH  25  26
ATOM     26  CB  ASP     2       0.776 -16.237   9.096  1.00  0.00     0.132 C 
BRANCH  26  27
ATOM     27  CG  ASP     2       2.188 -16.716   9.479  1.00  0.00     0.188 C 
ATOM     28  OD2 ASP     2       2.754 -17.462   8.639  1.00  0.00    -0.647 OA
ATOM     29  OD1 ASP     2       2.428 -16.843  10.705  1.00  0.00    -0.647 OA
ENDBRANCH  26  27
ENDBRANCH  25  26
BRANCH  25  30
ATOM     30  N   ASP     2      -0.450 -18.220   9.450  1.00  0.00    -0.228 NA
ATOM     31  C   TYR     1      -0.044 -19.355   9.971  1.00  0.00     0.289 C 
ATOM     32  O   TYR     1       0.430 -19.549  11.095  1.00  0.00    -0.268 OA
BRANCH  31  33
ATOM     33  CA  TYR     1      -0.192 -20.517   8.994  1.00  0.00     0.385 C 
ATOM     34  N   TYR     1       1.121 -21.173   8.871  1.00  0.00     0.626 N 
BRANCH  33  35
ATOM     35  CB  TYR     1      -1.261 -21.451   9.556  1.00  0.00     0.075 C 
BRANCH  35  36
ATOM     36  CG  TYR     1      -2.594 -21.364   8.796  1.00  0.00    -0.019 A 
ATOM     37  CD2 TYR     1      -3.138 -22.471   8.164  1.00  0.00    -0.002 A 
ATOM     38  CE2 TYR     1      -4.404 -22.401   7.602  1.00  0.00     0.027 A 
ATOM     39  CZ  TYR     1      -5.116 -21.204   7.676  1.00  0.00     0.131 A 
ATOM     40  CE1 TYR     1      -4.550 -20.092   8.273  1.00  0.00     0.027 A 
ATOM     41  OH  TYR     1      -6.412 -21.162   7.308  1.00  0.00    -0.190 OA
ATOM     42  CD1 TYR     1      -3.284 -20.162   8.834  1.00  0.00    -0.002 A 
ENDBRANCH  35  36
ENDBRANCH  33  35
ENDBRANCH  31  33
ENDBRANCH  25  30
ENDBRANCH  21  25
ENDBRANCH  16  18
ENDBRANCH   9  15
ENDBRANCH   7   9
ENDBRANCH   5   6
BRANCH   5  43
ATOM     43  CB  TYR     5      -8.693 -17.862  11.010  1.00  0.00     0.060 C 
BRANCH  43  44
ATOM     44  CG  TYR     5      -8.201 -19.316  11.105  1.00  0.00    -0.020 A 
ATOM     45  CD2 TYR     5      -6.845 -19.610  11.030  1.00  0.00    -0.002 A 
ATOM     46  CE2 TYR     5      -6.409 -20.928  11.124  1.00  0.00     0.027 A 
ATOM     47  CZ  TYR     5      -7.328 -21.952  11.294  1.00  0.00     0.131 A 
ATOM     48  CE1 TYR     5      -8.685 -21.664  11.389  1.00  0.00     0.027 A 
ATOM     49  OH  TYR     5      -6.927 -23.241  11.247  1.00  0.00    -0.190 OA
ATOM     50  CD1 TYR     5      -9.121 -20.343  11.285  1.00  0.00    -0.002 A 
ENDBRANCH  43  44
ENDBRANCH   5  43
ENDBRANCH   3   5
ENDBRANCH   1   2
BRANCH   1  51
ATOM     51  CB  ARG     6     -12.251 -19.594   7.795  1.00  0.00     0.036 C 
BRANCH  51  52
ATOM     52  CG  ARG     6     -11.425 -20.699   8.457  1.00  0.00     0.029 C 
BRANCH  52  53
ATOM     53  CD  ARG     6     -11.865 -22.069   7.947  1.00  0.00     0.145 C 
BRANCH  53  54
ATOM     54  NE  ARG     6     -12.784 -22.716   8.897  1.00  0.00    -0.083 NA
ATOM     55  CZ  ARG     6     -12.494 -23.789   9.658  1.00  0.00     0.782 C 
ATOM     56  NH2 ARG     6     -13.431 -24.348  10.427  1.00  0.00     0.063 N 
ATOM     57  NH1 ARG     6     -11.295 -24.357   9.587  1.00  0.00     0.063 N 
ENDBRANCH  53  54
ENDBRANCH  52  53
ENDBRANCH  51  52
ENDBRANCH   1  51
BRANCH   1  58
ATOM     58  C   ARG     6     -13.014 -17.638   9.064  1.00  0.00     0.274 C 
ATOM     59  N   ASN     7     -13.490 -16.456   8.683  1.00  0.00    -0.228 NA
ATOM     60  O   ARG     6     -13.431 -18.296  10.018  1.00  0.00    -0.268 OA
BRANCH  59  61
ATOM     61  CA  ASN     7     -14.668 -15.814   9.304  1.00  0.00     0.196 C 
BRANCH  61  62
ATOM     62  C   ASN     7     -15.673 -15.327   8.242  1.00  0.00     0.275 C 
ATOM     63  N   PHE     8     -16.946 -15.170   8.637  1.00  0.00    -0.228 NA
ATOM     64  O   ASN     7     -15.218 -14.759   7.268  1.00  0.00    -0.268 OA
BRANCH  63  65
ATOM     65  CA  PHE     8     -18.037 -14.631   7.789  1.00  0.00     0.191 C 
BRANCH  65  66
ATOM     66  CB  PHE     8     -19.117 -15.713   7.650  1.00  0.00     0.060 C 
BRANCH  66  67
ATOM     67  CG  PHE     8     -19.244 -16.645   8.870  1.00  0.00    -0.020 A 
ATOM     68  CD1 PHE     8     -18.972 -18.000   8.737  1.00  0.00    -0.004 A 
ATOM     69  CE1 PHE     8     -19.185 -18.860   9.814  1.00  0.00    -0.000 A 
ATOM     70  CZ  PHE     8     -19.653 -18.354  11.016  1.00  0.00    -0.000 A 
ATOM     71  CE2 PHE     8     -19.913 -16.994  11.155  1.00  0.00    -0.000 A 
ATOM     72  CD2 PHE     8     -19.700 -16.134  10.078  1.00  0.00    -0.004 A 
ENDBRANCH  66  67
ENDBRANCH  65  66
BRANCH  65  73
ATOM     73  C   PHE     8     -18.632 -13.287   8.267  1.00  0.00     0.275 C 
ATOM     74  N   TRP     9     -17.783 -12.433   8.841  1.00  0.00    -0.228 NA
ATOM     75  O   PHE     8     -19.852 -13.127   8.344  1.00  0.00    -0.268 OA
BRANCH  74  76
ATOM     76  CA  TRP     9     -18.191 -11.062   9.234  1.00  0.00     0.191 C 
BRANCH  76  77
ATOM     77  CB  TRP     9     -18.535 -10.264   7.965  1.00  0.00     0.062 C 
BRANCH  77  78
ATOM     78  CG  TRP     9     -17.656  -9.029   7.773  1.00  0.00     0.001 A 
ATOM     79  CD1 TRP     9     -16.332  -9.025   7.651  1.00  0.00     0.095 A 
ATOM     80  NE1 TRP     9     -15.872  -7.789   7.797  1.00  0.00    -0.244 NA
ATOM     81  CE2 TRP     9     -16.886  -6.960   7.997  1.00  0.00     0.081 A 
ATOM     82  CD2 TRP     9     -18.048  -7.715   8.003  1.00  0.00     0.015 A 
ATOM     83  CZ2 TRP     9     -16.951  -5.598   8.291  1.00  0.00     0.019 A 
ATOM     84  CE3 TRP     9     -19.270  -7.135   8.313  1.00  0.00     0.001 A 
ATOM     85  CZ3 TRP     9     -19.335  -5.780   8.620  1.00  0.00     0.000 A 
ATOM     86  CH2 TRP     9     -18.173  -5.012   8.588  1.00  0.00     0.002 A 
ENDBRANCH  77  78
ENDBRANCH  76  77
BRANCH  76  87
ATOM     87  C   TRP     9     -19.336 -11.005  10.271  1.00  0.00     0.275 C 
ATOM     88  O   TRP     9     -19.205 -11.511  11.381  1.00  0.00    -0.268 OA
ATOM     89  N   GLY    10     -20.410 -10.299   9.923  1.00  0.00    -0.226 NA
BRANCH  89  90
ATOM     90  CA  GLY    10     -21.596 -10.090  10.799  1.00  0.00     0.218 C 
BRANCH  90  91
ATOM     91  C   GLY    10     -22.927  -9.800  10.086  1.00  0.00     0.277 C 
ATOM     92  N   CYS    11     -23.683 -10.870   9.848  1.00  0.00    -0.228 NA
ATOM     93  O   GLY    10     -23.161  -8.686   9.632  1.00  0.00    -0.268 OA
BRANCH  92  94
ATOM     94  CA  CYS    11     -25.015 -10.883   9.202  1.00  0.00     0.198 C 
BRANCH  94  95
ATOM     95  C   CYS    11     -25.528 -12.336   9.193  1.00  0.00     0.275 C 
ATOM     96  O   CYS    11     -26.262 -12.703   8.281  1.00  0.00    -0.268 OA
ATOM     97  N   GLY    12     -25.298 -13.042  10.290  1.00  0.00    -0.225 NA
BRANCH  97  98
ATOM     98  CA  GLY    12     -25.733 -14.438  10.452  1.00  0.00     0.226 C 
BRANCH  98  99
ATOM     99  C   GLY    12     -24.644 -15.352   9.844  1.00  0.00     0.211 C 
ATOM    100  O1  GLY    12     -23.455 -14.959   9.951  1.00  0.00    -0.646 OA
ATOM    101  O2  GLY    12     -25.009 -16.424   9.326  1.00  0.00    -0.646 OA
ENDBRANCH  98  99
ENDBRANCH  97  98
ENDBRANCH  94  95
BRANCH  94 102
ATOM    102  CB  CYS    11     -24.892 -10.480   7.735  1.00  0.00     0.103 C 
ATOM    103  SG  CYS    11     -25.664  -8.883   7.268  1.00  0.00    -0.080 SA
ENDBRANCH  94 102
ENDBRANCH  92  94
ENDBRANCH  90  91
ENDBRANCH  89  90
ENDBRANCH  76  87
ENDBRANCH  74  76
ENDBRANCH  65  73
ENDBRANCH  63  65
ENDBRANCH  61  62
BRANCH  61 104
ATOM    104  CB  ASN     7     -14.252 -14.664  10.230  1.00  0.00     0.126 C 
BRANCH 104 105
ATOM    105  CG  ASN     7     -13.909 -13.346   9.511  1.00  0.00     0.276 C 
ATOM    106  ND2 ASN     7     -12.724 -13.289   8.948  1.00  0.00    -0.107 N 
ATOM    107  OD1 ASN     7     -14.580 -12.323   9.562  1.00  0.00    -0.269 OA
ENDBRANCH 104 105
ENDBRANCH  61 104
ENDBRANCH  59  61
ENDBRANCH   1  58
TORSDOF 42
ENDMDL
MODEL 4
REMARK VINA RESULT:      -2.0      2.082      2.602
REMARK WARNING: 32 MAX_TORS EXCEEDED!!!
REMARK  42 active torsions:
REMARK  status: ('A' for Active; 'I' for Inactive)
REMARK    1  A    between atoms: CA_2  and  CB_3 
REMARK    2  A    between atoms: CA_2  and  C_11 
REMARK    3  A    between atoms: CB_3  and  CG_4 
REMARK       I    between atoms: C_11  and  N_13 
REMARK    4  A    between atoms: N_13  and  CA_14 
REMARK    5  A    between atoms: CA_14  and  CB_15 
REMARK    6  A    between atoms: CA_14  and  C_19 
REMARK    7  A    between atoms: CB_15  and  CG_16 
REMARK       I    between atoms: C_19  and  N_21 
REMARK    8  A    between atoms: CA_22  and  C_26 
REMARK       I    between atoms: C_26  and  N_28 
REMARK    9  A    between atoms: N_28  and  CA_29 
REMARK   10  A    between atoms: CA_29  and  C_35 
REMARK   11  A    between atoms: CA_29  and  CB_30 
REMARK   12  A    between atoms: CB_30  and  CG_31 
REMARK   13  A    between atoms: CG_31  and  CD_32 
REMARK       I    between atoms: C_35  and  N_37 
REMARK   14  A    between atoms: N_37  and  CA_38 
REMARK   15  A    between atoms: CA_38  and  CB_39 
REMARK   16  A    between atoms: CA_38  and  C_47 
REMARK   17  A    between atoms: CB_39  and  CG_40 
REMARK       I    between atoms: C_47  and  N_49 
REMARK   18  A    between atoms: N_49  and  CA_50 
REMARK   19  A    between atoms: CA_50  and  CB_51 
REMARK   20  A    between atoms: CA_50  and  C_58 
REMARK   21  A    between atoms: CB_51  and  CG_52 
REMARK   22  A    between atoms: CG_52  and  CD_53 
REMARK   23  A    between atoms: CD_53  and  NE_54 
REMARK       I    between atoms: C_58  and  N_60 
REMARK   24  A    between atoms: N_60  and  CA_61 
REMARK   25  A    between atoms: CA_61  and  C_66 
REMARK   26  A    between atoms: CA_61  and  CB_62 
REMARK   27  A    between atoms: CB_62  and  CG_63 
REMARK       I    between atoms: C_66  and  N_68 
REMARK   28  A    between atoms: N_68  and  CA_69 
REMARK   29  A    between atoms: CA_69  and  CB_70 
REMARK   30  A    between atoms: CA_69  and  C_77 
REMARK   31  A    between atoms: CB_70  and  CG_71 
REMARK       I    between atoms: C_77  and  N_79 
REMARK   32  A    between atoms: N_79  and  CA_80 
REMARK   33  A    between atoms: CA_80  and  CB_81 
REMARK   34  A    between atoms: CA_80  and  C_91 
REMARK   35  A    between atoms: CB_81  and  CG_82 
REMARK       I    between atoms: C_91  and  N_93 
REMARK   36  A    between atoms: N_93  and  CA_94 
REMARK   37  A    between atoms: CA_94  and  C_95 
REMARK       I    between atoms: C_95  and  N_97 
REMARK   38  A    between atoms: N_97  and  CA_98 
REMARK   39  A    between atoms: CA_98  and  C_101 
REMARK   40  A    between atoms: CA_98  and  CB_99 
REMARK       I    between atoms: C_101  and  N_103 
REMARK   41  A    between atoms: N_103  and  CA_104 
REMARK   42  A    between atoms: CA_104  and  C_105 
ROOT
ATOM      1  CA  ARG     6      -7.793   5.452   9.430  1.00  0.00     0.186 C 
ENDROOT
BRANCH   1   2
ATOM      2  N   ARG     6      -6.860   6.585   9.635  1.00  0.00    -0.229 NA
ATOM      3  C   TYR     5      -5.808   6.801   8.835  1.00  0.00     0.275 C 
ATOM      4  O   TYR     5      -5.564   6.090   7.859  1.00  0.00    -0.268 OA
BRANCH   3   5
ATOM      5  CA  TYR     5      -4.962   8.054   9.113  1.00  0.00     0.191 C 
BRANCH   5   6
ATOM      6  N   TYR     5      -3.593   7.985   8.539  1.00  0.00    -0.228 NA
ATOM      7  C   GLU     4      -2.548   7.456   9.196  1.00  0.00     0.274 C 
ATOM      8  O   GLU     4      -2.668   6.863  10.261  1.00  0.00    -0.268 OA
BRANCH   7   9
ATOM      9  CA  GLU     4      -1.234   7.339   8.396  1.00  0.00     0.187 C 
BRANCH   9  10
ATOM     10  CB  GLU     4      -0.354   6.231   8.998  1.00  0.00     0.045 C 
BRANCH  10  11
ATOM     11  CG  GLU     4       0.401   5.336   7.991  1.00  0.00     0.100 C 
BRANCH  11  12
ATOM     12  CD  GLU     4       0.884   4.007   8.570  1.00  0.00     0.185 C 
ATOM     13  OE1 GLU     4       1.948   4.022   9.242  1.00  0.00    -0.647 OA
ATOM     14  OE2 GLU     4       0.507   2.971   7.987  1.00  0.00    -0.647 OA
ENDBRANCH  11  12
ENDBRANCH  10  11
ENDBRANCH   9  10
BRANCH   9  15
ATOM     15  N   GLU     4      -0.457   8.593   8.365  1.00  0.00    -0.229 NA
ATOM     16  C   PRO     3      -0.337   9.507   9.320  1.00  0.00     0.272 C 
ATOM     17  O   PRO     3      -0.552   9.273  10.511  1.00  0.00    -0.269 OA
BRANCH  16  18
ATOM     18  CA  PRO     3       0.548  10.705   8.970  1.00  0.00     0.165 C 
ATOM     19  N   PRO     3       1.979  10.386   8.779  1.00  0.00    -0.312 N 
ATOM     20  CD  PRO     3       2.514  11.159   7.629  1.00  0.00     0.105 C 
ATOM     21  C   ASP     2       2.700   9.630   9.627  1.00  0.00     0.257 C 
ATOM     22  CG  PRO     3       1.382  12.133   7.268  1.00  0.00     0.027 C 
ATOM     23  CB  PRO     3       0.115  11.385   7.674  1.00  0.00     0.034 C 
ATOM     24  O   ASP     2       2.245   9.332  10.742  1.00  0.00    -0.270 OA
BRANCH  21  25
ATOM     25  CA  ASP     2       4.212   9.433   9.373  1.00  0.00     0.195 C 
BRANCH  25  26
ATOM     26  CB  ASP     2       4.899   8.285  10.157  1.00  0.00     0.132 C 
BRANCH  26  27
ATOM     27  CG  ASP     2       4.771   6.957   9.388  1.00  0.00     0.188 C 
ATOM     28  OD2 ASP     2       5.856   6.397   9.089  1.00  0.00    -0.647 OA
ATOM     29  OD1 ASP     2       3.764   6.828   8.649  1.00  0.00    -0.647 OA
ENDBRANCH  26  27
ENDBRANCH  25  26
BRANCH  25  30
ATOM     30  N   ASP     2       4.999  10.610   9.776  1.00  0.00    -0.228 NA
ATOM     31  C   TYR     1       5.758  11.350   9.002  1.00  0.00     0.289 C 
ATOM     32  O   TYR     1       5.864  11.303   7.772  1.00  0.00    -0.268 OA
BRANCH  31  33
ATOM     33  CA  TYR     1       6.591  12.347   9.802  1.00  0.00     0.385 C 
ATOM     34  N   TYR     1       7.238  11.613  10.902  1.00  0.00     0.626 N 
BRANCH  33  35
ATOM     35  CB  TYR     1       7.600  12.971   8.841  1.00  0.00     0.075 C 
BRANCH  35  36
ATOM     36  CG  TYR     1       7.794  14.478   9.069  1.00  0.00    -0.019 A 
ATOM     37  CD2 TYR     1       9.002  15.101   8.795  1.00  0.00    -0.002 A 
ATOM     38  CE2 TYR     1       9.110  16.481   8.879  1.00  0.00     0.027 A 
ATOM     39  CZ  TYR     1       7.994  17.229   9.250  1.00  0.00     0.131 A 
ATOM     40  CE1 TYR     1       6.803  16.598   9.562  1.00  0.00     0.027 A 
ATOM     41  OH  TYR     1       8.018  18.574   9.159  1.00  0.00    -0.190 OA
ATOM     42  CD1 TYR     1       6.695  15.218   9.478  1.00  0.00    -0.002 A 
ENDBRANCH  35  36
ENDBRANCH  33  35
ENDBRANCH  31  33
ENDBRANCH  25  30
ENDBRANCH  21  25
ENDBRANCH  16  18
ENDBRANCH   9  15
ENDBRANCH   7   9
ENDBRANCH   5   6
BRANCH   5  43
ATOM     43  CB  TYR     5      -5.678   9.322   8.618  1.00  0.00     0.060 C 
BRANCH  43  44
ATOM     44  CG  TYR     5      -4.860  10.596   8.884  1.00  0.00    -0.020 A 
ATOM     45  CD2 TYR     5      -4.548  11.466   7.846  1.00  0.00    -0.002 A 
ATOM     46  CE2 TYR     5      -3.813  12.620   8.098  1.00  0.00     0.027 A 
ATOM     47  CZ  TYR     5      -3.390  12.906   9.387  1.00  0.00     0.131 A 
ATOM     48  CE1 TYR     5      -3.713  12.049  10.434  1.00  0.00     0.027 A 
ATOM     49  OH  TYR     5      -2.561  13.947   9.616  1.00  0.00    -0.190 OA
ATOM     50  CD1 TYR     5      -4.442  10.888  10.177  1.00  0.00    -0.002 A 
ENDBRANCH  43  44
ENDBRANCH   5  43
ENDBRANCH   3   5
ENDBRANCH   1   2
BRANCH   1  51
ATOM     51  CB  ARG     6      -8.216   4.788  10.737  1.00  0.00     0.036 C 
BRANCH  51  52
ATOM     52  CG  ARG     6      -8.573   3.307  10.586  1.00  0.00     0.029 C 
BRANCH  52  53
ATOM     53  CD  ARG     6      -9.939   3.155   9.923  1.00  0.00     0.145 C 
BRANCH  53  54
ATOM     54  NE  ARG     6     -10.793   2.225  10.682  1.00  0.00    -0.083 NA
ATOM     55  CZ  ARG     6     -10.710   0.882  10.645  1.00  0.00     0.782 C 
ATOM     56  NH2 ARG     6     -11.590   0.130  11.310  1.00  0.00     0.063 N 
ATOM     57  NH1 ARG     6      -9.805   0.286   9.877  1.00  0.00     0.063 N 
ENDBRANCH  53  54
ENDBRANCH  52  53
ENDBRANCH  51  52
ENDBRANCH   1  51
BRANCH   1  58
ATOM     58  C   ARG     6      -9.083   5.877   8.717  1.00  0.00     0.274 C 
ATOM     59  N   ASN     7      -9.916   6.631   9.430  1.00  0.00    -0.228 NA
ATOM     60  O   ARG     6      -9.279   5.507   7.558  1.00  0.00    -0.268 OA
BRANCH  59  61
ATOM     61  CA  ASN     7     -11.157   7.216   8.882  1.00  0.00     0.196 C 
BRANCH  61  62
ATOM     62  C   ASN     7     -12.159   6.124   8.457  1.00  0.00     0.275 C 
ATOM     63  N   PHE     8     -13.006   5.679   9.396  1.00  0.00    -0.228 NA
ATOM     64  O   ASN     7     -12.388   6.015   7.268  1.00  0.00    -0.268 OA
BRANCH  63  65
ATOM     65  CA  PHE     8     -14.094   4.698   9.161  1.00  0.00     0.191 C 
BRANCH  65  66
ATOM     66  CB  PHE     8     -14.156   3.751  10.367  1.00  0.00     0.060 C 
BRANCH  66  67
ATOM     67  CG  PHE     8     -14.756   2.366  10.059  1.00  0.00    -0.020 A 
ATOM     68  CD1 PHE     8     -14.161   1.550   9.107  1.00  0.00    -0.004 A 
ATOM     69  CE1 PHE     8     -14.762   0.342   8.755  1.00  0.00    -0.000 A 
ATOM     70  CZ  PHE     8     -15.942  -0.044   9.369  1.00  0.00    -0.000 A 
ATOM     71  CE2 PHE     8     -16.533   0.766  10.334  1.00  0.00    -0.000 A 
ATOM     72  CD2 PHE     8     -15.932   1.974  10.686  1.00  0.00    -0.004 A 
ENDBRANCH  66  67
ENDBRANCH  65  66
BRANCH  65  73
ATOM     73  C   PHE     8     -15.475   5.317   8.850  1.00  0.00     0.275 C 
ATOM     74  N   TRP     9     -16.366   5.311   9.842  1.00  0.00    -0.228 NA
ATOM     75  O   PHE     8     -15.811   5.566   7.689  1.00  0.00    -0.268 OA
BRANCH  74  76
ATOM     76  CA  TRP     9     -17.685   5.981   9.722  1.00  0.00     0.191 C 
BRANCH  76  77
ATOM     77  CB  TRP     9     -17.491   7.332   9.015  1.00  0.00     0.062 C 
BRANCH  77  78
ATOM     78  CG  TRP     9     -18.103   8.505   9.781  1.00  0.00     0.001 A 
ATOM     79  CD1 TRP     9     -19.350   8.573  10.238  1.00  0.00     0.095 A 
ATOM     80  NE1 TRP     9     -19.633   9.823  10.584  1.00  0.00    -0.244 NA
ATOM     81  CE2 TRP     9     -18.572  10.590  10.379  1.00  0.00     0.081 A 
ATOM     82  CD2 TRP     9     -17.572   9.789   9.851  1.00  0.00     0.015 A 
ATOM     83  CZ2 TRP     9     -18.363  11.964  10.489  1.00  0.00     0.019 A 
ATOM     84  CE3 TRP     9     -16.374  10.339   9.419  1.00  0.00     0.001 A 
ATOM     85  CZ3 TRP     9     -16.169  11.711   9.516  1.00  0.00     0.000 A 
ATOM     86  CH2 TRP     9     -17.161  12.517  10.070  1.00  0.00     0.002 A 
ENDBRANCH  77  78
ENDBRANCH  76  77
BRANCH  76  87
ATOM     87  C   TRP     9     -18.776   5.129   9.034  1.00  0.00     0.275 C 
ATOM     88  O   TRP     9     -19.479   5.603   8.147  1.00  0.00    -0.268 OA
ATOM     89  N   GLY    10     -18.833   3.847   9.390  1.00  0.00    -0.226 NA
BRANCH  89  90
ATOM     90  CA  GLY    10     -19.784   2.858   8.812  1.00  0.00     0.218 C 
BRANCH  90  91
ATOM     91  C   GLY    10     -20.659   2.087   9.813  1.00  0.00     0.277 C 
ATOM     92  N   CYS    11     -21.502   1.212   9.267  1.00  0.00    -0.228 NA
ATOM     93  O   GLY    10     -20.680   2.405  10.997  1.00  0.00    -0.268 OA
BRANCH  92  94
ATOM     94  CA  CYS    11     -22.441   0.323   9.989  1.00  0.00     0.198 C 
BRANCH  94  95
ATOM     95  C   CYS    11     -22.123  -1.132   9.592  1.00  0.00     0.275 C 
ATOM     96  O   CYS    11     -21.600  -1.352   8.504  1.00  0.00    -0.268 OA
ATOM     97  N   GLY    12     -22.622  -2.073  10.380  1.00  0.00    -0.225 NA
BRANCH  97  98
ATOM     98  CA  GLY    12     -22.427  -3.510  10.135  1.00  0.00     0.226 C 
BRANCH  98  99
ATOM     99  C   GLY    12     -23.379  -3.934   8.993  1.00  0.00     0.211 C 
ATOM    100  O1  GLY    12     -22.846  -4.438   7.972  1.00  0.00    -0.646 OA
ATOM    101  O2  GLY    12     -24.602  -3.784   9.171  1.00  0.00    -0.646 OA
ENDBRANCH  98  99
ENDBRANCH  97  98
ENDBRANCH  94  95
BRANCH  94 102
ATOM    102  CB  CYS    11     -23.871   0.576   9.518  1.00  0.00     0.103 C 
ATOM    103  SG  CYS    11     -25.051   1.159  10.795  1.00  0.00    -0.080 SA
ENDBRANCH  94 102
ENDBRANCH  92  94
ENDBRANCH  90  91
ENDBRANCH  89  90
ENDBRANCH  76  87
ENDBRANCH  74  76
ENDBRANCH  65  73
ENDBRANCH  63  65
ENDBRANCH  61  62
BRANCH  61 104
ATOM    104  CB  ASN     7     -10.857   8.165   7.714  1.00  0.00     0.126 C 
BRANCH 104 105
ATOM    105  CG  ASN     7     -10.823   9.658   8.087  1.00  0.00     0.276 C 
ATOM    106  ND2 ASN     7      -9.823  10.040   8.848  1.00  0.00    -0.107 N 
ATOM    107  OD1 ASN     7     -11.721  10.460   7.862  1.00  0.00    -0.269 OA
ENDBRANCH 104 105
ENDBRANCH  61 104
ENDBRANCH  59  61
ENDBRANCH   1  58
TORSDOF 42
ENDMDL
MODEL 5
REMARK VINA RESULT:      -2.0      1.777      2.476
REMARK WARNING: 32 MAX_TORS EXCEEDED!!!
REMARK  42 active torsions:
REMARK  status: ('A' for Active; 'I' for Inactive)
REMARK    1  A    between atoms: CA_2  and  CB_3 
REMARK    2  A    between atoms: CA_2  and  C_11 
REMARK    3  A    between atoms: CB_3  and  CG_4 
REMARK       I    between atoms: C_11  and  N_13 
REMARK    4  A    between atoms: N_13  and  CA_14 
REMARK    5  A    between atoms: CA_14  and  CB_15 
REMARK    6  A    between atoms: CA_14  and  C_19 
REMARK    7  A    between atoms: CB_15  and  CG_16 
REMARK       I    between atoms: C_19  and  N_21 
REMARK    8  A    between atoms: CA_22  and  C_26 
REMARK       I    between atoms: C_26  and  N_28 
REMARK    9  A    between atoms: N_28  and  CA_29 
REMARK   10  A    between atoms: CA_29  and  C_35 
REMARK   11  A    between atoms: CA_29  and  CB_30 
REMARK   12  A    between atoms: CB_30  and  CG_31 
REMARK   13  A    between atoms: CG_31  and  CD_32 
REMARK       I    between atoms: C_35  and  N_37 
REMARK   14  A    between atoms: N_37  and  CA_38 
REMARK   15  A    between atoms: CA_38  and  CB_39 
REMARK   16  A    between atoms: CA_38  and  C_47 
REMARK   17  A    between atoms: CB_39  and  CG_40 
REMARK       I    between atoms: C_47  and  N_49 
REMARK   18  A    between atoms: N_49  and  CA_50 
REMARK   19  A    between atoms: CA_50  and  CB_51 
REMARK   20  A    between atoms: CA_50  and  C_58 
REMARK   21  A    between atoms: CB_51  and  CG_52 
REMARK   22  A    between atoms: CG_52  and  CD_53 
REMARK   23  A    between atoms: CD_53  and  NE_54 
REMARK       I    between atoms: C_58  and  N_60 
REMARK   24  A    between atoms: N_60  and  CA_61 
REMARK   25  A    between atoms: CA_61  and  C_66 
REMARK   26  A    between atoms: CA_61  and  CB_62 
REMARK   27  A    between atoms: CB_62  and  CG_63 
REMARK       I    between atoms: C_66  and  N_68 
REMARK   28  A    between atoms: N_68  and  CA_69 
REMARK   29  A    between atoms: CA_69  and  CB_70 
REMARK   30  A    between atoms: CA_69  and  C_77 
REMARK   31  A    between atoms: CB_70  and  CG_71 
REMARK       I    between atoms: C_77  and  N_79 
REMARK   32  A    between atoms: N_79  and  CA_80 
REMARK   33  A    between atoms: CA_80  and  CB_81 
REMARK   34  A    between atoms: CA_80  and  C_91 
REMARK   35  A    between atoms: CB_81  and  CG_82 
REMARK       I    between atoms: C_91  and  N_93 
REMARK   36  A    between atoms: N_93  and  CA_94 
REMARK   37  A    between atoms: CA_94  and  C_95 
REMARK       I    between atoms: C_95  and  N_97 
REMARK   38  A    between atoms: N_97  and  CA_98 
REMARK   39  A    between atoms: CA_98  and  C_101 
REMARK   40  A    between atoms: CA_98  and  CB_99 
REMARK       I    between atoms: C_101  and  N_103 
REMARK   41  A    between atoms: N_103  and  CA_104 
REMARK   42  A    between atoms: CA_104  and  C_105 
ROOT
ATOM      1  CA  ARG     6      -7.168   5.253   9.453  1.00  0.00     0.186 C 
ENDROOT
BRANCH   1   2
ATOM      2  N   ARG     6      -6.222   6.358   9.735  1.00  0.00    -0.229 NA
ATOM      3  C   TYR     5      -5.123   6.568   8.999  1.00  0.00     0.275 C 
ATOM      4  O   TYR     5      -4.842   5.873   8.022  1.00  0.00    -0.268 OA
BRANCH   3   5
ATOM      5  CA  TYR     5      -4.266   7.794   9.352  1.00  0.00     0.191 C 
BRANCH   5   6
ATOM      6  N   TYR     5      -2.865   7.700   8.864  1.00  0.00    -0.228 NA
ATOM      7  C   GLU     4      -1.857   7.228   9.615  1.00  0.00     0.274 C 
ATOM      8  O   GLU     4      -2.035   6.708  10.709  1.00  0.00    -0.268 OA
BRANCH   7   9
ATOM      9  CA  GLU     4      -0.498   7.069   8.901  1.00  0.00     0.187 C 
BRANCH   9  10
ATOM     10  CB  GLU     4       0.394   6.096   9.688  1.00  0.00     0.045 C 
BRANCH  10  11
ATOM     11  CG  GLU     4       1.164   5.049   8.854  1.00  0.00     0.100 C 
BRANCH  11  12
ATOM     12  CD  GLU     4       2.623   4.862   9.270  1.00  0.00     0.185 C 
ATOM     13  OE1 GLU     4       3.253   5.886   9.643  1.00  0.00    -0.647 OA
ATOM     14  OE2 GLU     4       3.221   3.877   8.791  1.00  0.00    -0.647 OA
ENDBRANCH  11  12
ENDBRANCH  10  11
ENDBRANCH   9  10
BRANCH   9  15
ATOM     15  N   GLU     4       0.226   8.345   8.738  1.00  0.00    -0.229 NA
ATOM     16  C   PRO     3       0.298   9.361   9.589  1.00  0.00     0.272 C 
ATOM     17  O   PRO     3       0.081   9.249  10.796  1.00  0.00    -0.269 OA
BRANCH  16  18
ATOM     18  CA  PRO     3       1.136  10.551   9.115  1.00  0.00     0.165 C 
ATOM     19  N   PRO     3       2.592  10.298   9.047  1.00  0.00    -0.312 N 
ATOM     20  CD  PRO     3       3.152  10.932   7.827  1.00  0.00     0.105 C 
ATOM     21  C   ASP     2       3.300   9.717  10.033  1.00  0.00     0.257 C 
ATOM     22  CG  PRO     3       1.993  11.772   7.269  1.00  0.00     0.027 C 
ATOM     23  CB  PRO     3       0.747  11.011   7.712  1.00  0.00     0.034 C 
ATOM     24  O   ASP     2       2.795   9.552  11.154  1.00  0.00    -0.270 OA
BRANCH  21  25
ATOM     25  CA  ASP     2       4.833   9.581   9.889  1.00  0.00     0.195 C 
BRANCH  25  26
ATOM     26  CB  ASP     2       5.508   8.467  10.730  1.00  0.00     0.132 C 
BRANCH  26  27
ATOM     27  CG  ASP     2       6.367   7.560   9.830  1.00  0.00     0.188 C 
ATOM     28  OD2 ASP     2       6.493   6.371  10.221  1.00  0.00    -0.647 OA
ATOM     29  OD1 ASP     2       7.288   8.117   9.182  1.00  0.00    -0.647 OA
ENDBRANCH  26  27
ENDBRANCH  25  26
BRANCH  25  30
ATOM     30  N   ASP     2       5.541  10.792  10.338  1.00  0.00    -0.228 NA
ATOM     31  C   TYR     1       6.471  11.446   9.682  1.00  0.00     0.289 C 
ATOM     32  O   TYR     1       6.846  11.272   8.519  1.00  0.00    -0.268 OA
BRANCH  31  33
ATOM     33  CA  TYR     1       7.130  12.518  10.544  1.00  0.00     0.385 C 
ATOM     34  N   TYR     1       8.510  12.087  10.824  1.00  0.00     0.626 N 
BRANCH  33  35
ATOM     35  CB  TYR     1       7.075  13.828   9.762  1.00  0.00     0.075 C 
BRANCH  35  36
ATOM     36  CG  TYR     1       5.645  14.241   9.382  1.00  0.00    -0.019 A 
ATOM     37  CD2 TYR     1       4.745  14.692  10.336  1.00  0.00    -0.002 A 
ATOM     38  CE2 TYR     1       3.508  15.186   9.950  1.00  0.00     0.027 A 
ATOM     39  CZ  TYR     1       3.181  15.217   8.595  1.00  0.00     0.131 A 
ATOM     40  CE1 TYR     1       4.067  14.728   7.652  1.00  0.00     0.027 A 
ATOM     41  OH  TYR     1       2.071  15.860   8.179  1.00  0.00    -0.190 OA
ATOM     42  CD1 TYR     1       5.304  14.234   8.038  1.00  0.00    -0.002 A 
ENDBRANCH  35  36
ENDBRANCH  33  35
ENDBRANCH  31  33
ENDBRANCH  25  30
ENDBRANCH  21  25
ENDBRANCH  16  18
ENDBRANCH   9  15
ENDBRANCH   7   9
ENDBRANCH   5   6
BRANCH   5  43
ATOM     43  CB  TYR     5      -4.918   9.088   8.836  1.00  0.00     0.060 C 
BRANCH  43  44
ATOM     44  CG  TYR     5      -4.325  10.344   9.496  1.00  0.00    -0.020 A 
ATOM     45  CD2 TYR     5      -5.068  11.080  10.410  1.00  0.00    -0.002 A 
ATOM     46  CE2 TYR     5      -4.520  12.211  11.008  1.00  0.00     0.027 A 
ATOM     47  CZ  TYR     5      -3.230  12.606  10.691  1.00  0.00     0.131 A 
ATOM     48  CE1 TYR     5      -2.473  11.865   9.790  1.00  0.00     0.027 A 
ATOM     49  OH  TYR     5      -2.743  13.777  11.157  1.00  0.00    -0.190 OA
ATOM     50  CD1 TYR     5      -3.028  10.737   9.186  1.00  0.00    -0.002 A 
ENDBRANCH  43  44
ENDBRANCH   5  43
ENDBRANCH   3   5
ENDBRANCH   1   2
BRANCH   1  51
ATOM     51  CB  ARG     6      -7.678   4.572  10.719  1.00  0.00     0.036 C 
BRANCH  51  52
ATOM     52  CG  ARG     6      -7.958   3.077  10.542  1.00  0.00     0.029 C 
BRANCH  52  53
ATOM     53  CD  ARG     6      -6.742   2.376   9.945  1.00  0.00     0.145 C 
BRANCH  53  54
ATOM     54  NE  ARG     6      -5.503   3.105  10.263  1.00  0.00    -0.083 NA
ATOM     55  CZ  ARG     6      -4.447   2.598  10.928  1.00  0.00     0.782 C 
ATOM     56  NH2 ARG     6      -3.405   3.372  11.238  1.00  0.00     0.063 N 
ATOM     57  NH1 ARG     6      -4.467   1.341  11.361  1.00  0.00     0.063 N 
ENDBRANCH  53  54
ENDBRANCH  52  53
ENDBRANCH  51  52
ENDBRANCH   1  51
BRANCH   1  58
ATOM     58  C   ARG     6      -8.405   5.723   8.679  1.00  0.00     0.274 C 
ATOM     59  N   ASN     7      -9.234   6.523   9.345  1.00  0.00    -0.228 NA
ATOM     60  O   ARG     6      -8.567   5.346   7.517  1.00  0.00    -0.268 OA
BRANCH  59  61
ATOM     61  CA  ASN     7     -10.423   7.153   8.736  1.00  0.00     0.196 C 
BRANCH  61  62
ATOM     62  C   ASN     7     -11.525   6.117   8.439  1.00  0.00     0.275 C 
ATOM     63  N   PHE     8     -12.403   5.865   9.421  1.00  0.00    -0.228 NA
ATOM     64  O   ASN     7     -11.772   5.891   7.270  1.00  0.00    -0.268 OA
BRANCH  63  65
ATOM     65  CA  PHE     8     -13.578   4.969   9.299  1.00  0.00     0.191 C 
BRANCH  65  66
ATOM     66  CB  PHE     8     -13.731   4.195  10.616  1.00  0.00     0.060 C 
BRANCH  66  67
ATOM     67  CG  PHE     8     -13.465   2.683  10.500  1.00  0.00    -0.020 A 
ATOM     68  CD1 PHE     8     -14.494   1.779  10.722  1.00  0.00    -0.004 A 
ATOM     69  CE1 PHE     8     -14.229   0.409  10.718  1.00  0.00    -0.000 A 
ATOM     70  CZ  PHE     8     -12.942  -0.041  10.476  1.00  0.00    -0.000 A 
ATOM     71  CE2 PHE     8     -11.911   0.863  10.240  1.00  0.00    -0.000 A 
ATOM     72  CD2 PHE     8     -12.176   2.232  10.245  1.00  0.00    -0.004 A 
ENDBRANCH  66  67
ENDBRANCH  65  66
BRANCH  65  73
ATOM     73  C   PHE     8     -14.894   5.670   8.893  1.00  0.00     0.275 C 
ATOM     74  N   TRP     9     -15.908   5.575   9.754  1.00  0.00    -0.228 NA
ATOM     75  O   PHE     8     -15.069   6.068   7.738  1.00  0.00    -0.268 OA
BRANCH  74  76
ATOM     76  CA  TRP     9     -17.186   6.301   9.550  1.00  0.00     0.191 C 
BRANCH  76  77
ATOM     77  CB  TRP     9     -16.909   7.572   8.730  1.00  0.00     0.062 C 
BRANCH  77  78
ATOM     78  CG  TRP     9     -17.119   8.859   9.526  1.00  0.00     0.001 A 
ATOM     79  CD1 TRP     9     -16.208   9.469  10.278  1.00  0.00     0.095 A 
ATOM     80  NE1 TRP     9     -16.798  10.374  11.049  1.00  0.00    -0.244 NA
ATOM     81  CE2 TRP     9     -18.099  10.387  10.802  1.00  0.00     0.081 A 
ATOM     82  CD2 TRP     9     -18.352   9.421   9.841  1.00  0.00     0.015 A 
ATOM     83  CZ2 TRP     9     -19.166  11.071  11.384  1.00  0.00     0.019 A 
ATOM     84  CE3 TRP     9     -19.652   9.117   9.464  1.00  0.00     0.001 A 
ATOM     85  CZ3 TRP     9     -20.718   9.788  10.053  1.00  0.00     0.000 A 
ATOM     86  CH2 TRP     9     -20.467  10.779  11.000  1.00  0.00     0.002 A 
ENDBRANCH  77  78
ENDBRANCH  76  77
BRANCH  76  87
ATOM     87  C   TRP     9     -18.313   5.451   8.920  1.00  0.00     0.275 C 
ATOM     88  O   TRP     9     -19.492   5.744   9.089  1.00  0.00    -0.268 OA
ATOM     89  N   GLY    10     -17.924   4.463   8.115  1.00  0.00    -0.226 NA
BRANCH  89  90
ATOM     90  CA  GLY    10     -18.857   3.562   7.382  1.00  0.00     0.218 C 
BRANCH  90  91
ATOM     91  C   GLY    10     -19.244   2.256   8.094  1.00  0.00     0.277 C 
ATOM     92  N   CYS    11     -20.476   2.235   8.602  1.00  0.00    -0.228 NA
ATOM     93  O   GLY    10     -18.403   1.392   8.312  1.00  0.00    -0.268 OA
BRANCH  92  94
ATOM     94  CA  CYS    11     -21.117   1.107   9.314  1.00  0.00     0.198 C 
BRANCH  94  95
ATOM     95  C   CYS    11     -22.628   1.149   9.014  1.00  0.00     0.275 C 
ATOM     96  O   CYS    11     -23.003   1.163   7.846  1.00  0.00    -0.268 OA
ATOM     97  N   GLY    12     -23.422   1.367  10.051  1.00  0.00    -0.225 NA
BRANCH  97  98
ATOM     98  CA  GLY    12     -24.886   1.452   9.937  1.00  0.00     0.226 C 
BRANCH  98  99
ATOM     99  C   GLY    12     -25.413   0.063   9.510  1.00  0.00     0.211 C 
ATOM    100  O1  GLY    12     -25.357  -0.210   8.284  1.00  0.00    -0.646 OA
ATOM    101  O2  GLY    12     -25.822  -0.702  10.403  1.00  0.00    -0.646 OA
ENDBRANCH  98  99
ENDBRANCH  97  98
ENDBRANCH  94  95
BRANCH  94 102
ATOM    102  CB  CYS    11     -20.992   1.300  10.824  1.00  0.00     0.103 C 
ATOM    103  SG  CYS    11     -20.584   2.996  11.391  1.00  0.00    -0.080 SA
ENDBRANCH  94 102
ENDBRANCH  92  94
ENDBRANCH  90  91
ENDBRANCH  89  90
ENDBRANCH  76  87
ENDBRANCH  74  76
ENDBRANCH  65  73
ENDBRANCH  63  65
ENDBRANCH  61  62
BRANCH  61 104
ATOM    104  CB  ASN     7     -10.052   7.933   7.468  1.00  0.00     0.126 C 
BRANCH 104 105
ATOM    105  CG  ASN     7      -9.420   9.315   7.720  1.00  0.00     0.276 C 
ATOM    106  ND2 ASN     7      -8.130   9.409   7.490  1.00  0.00    -0.107 N 
ATOM    107  OD1 ASN     7      -9.987  10.260   8.253  1.00  0.00    -0.269 OA
ENDBRANCH 104 105
ENDBRANCH  61 104
ENDBRANCH  59  61
ENDBRANCH   1  58
TORSDOF 42
ENDMDL
MODEL 6
REMARK VINA RESULT:      -2.0     17.592     25.655
REMARK WARNING: 32 MAX_TORS EXCEEDED!!!
REMARK  42 active torsions:
REMARK  status: ('A' for Active; 'I' for Inactive)
REMARK    1  A    between atoms: CA_2  and  CB_3 
REMARK    2  A    between atoms: CA_2  and  C_11 
REMARK    3  A    between atoms: CB_3  and  CG_4 
REMARK       I    between atoms: C_11  and  N_13 
REMARK    4  A    between atoms: N_13  and  CA_14 
REMARK    5  A    between atoms: CA_14  and  CB_15 
REMARK    6  A    between atoms: CA_14  and  C_19 
REMARK    7  A    between atoms: CB_15  and  CG_16 
REMARK       I    between atoms: C_19  and  N_21 
REMARK    8  A    between atoms: CA_22  and  C_26 
REMARK       I    between atoms: C_26  and  N_28 
REMARK    9  A    between atoms: N_28  and  CA_29 
REMARK   10  A    between atoms: CA_29  and  C_35 
REMARK   11  A    between atoms: CA_29  and  CB_30 
REMARK   12  A    between atoms: CB_30  and  CG_31 
REMARK   13  A    between atoms: CG_31  and  CD_32 
REMARK       I    between atoms: C_35  and  N_37 
REMARK   14  A    between atoms: N_37  and  CA_38 
REMARK   15  A    between atoms: CA_38  and  CB_39 
REMARK   16  A    between atoms: CA_38  and  C_47 
REMARK   17  A    between atoms: CB_39  and  CG_40 
REMARK       I    between atoms: C_47  and  N_49 
REMARK   18  A    between atoms: N_49  and  CA_50 
REMARK   19  A    between atoms: CA_50  and  CB_51 
REMARK   20  A    between atoms: CA_50  and  C_58 
REMARK   21  A    between atoms: CB_51  and  CG_52 
REMARK   22  A    between atoms: CG_52  and  CD_53 
REMARK   23  A    between atoms: CD_53  and  NE_54 
REMARK       I    between atoms: C_58  and  N_60 
REMARK   24  A    between atoms: N_60  and  CA_61 
REMARK   25  A    between atoms: CA_61  and  C_66 
REMARK   26  A    between atoms: CA_61  and  CB_62 
REMARK   27  A    between atoms: CB_62  and  CG_63 
REMARK       I    between atoms: C_66  and  N_68 
REMARK   28  A    between atoms: N_68  and  CA_69 
REMARK   29  A    between atoms: CA_69  and  CB_70 
REMARK   30  A    between atoms: CA_69  and  C_77 
REMARK   31  A    between atoms: CB_70  and  CG_71 
REMARK       I    between atoms: C_77  and  N_79 
REMARK   32  A    between atoms: N_79  and  CA_80 
REMARK   33  A    between atoms: CA_80  and  CB_81 
REMARK   34  A    between atoms: CA_80  and  C_91 
REMARK   35  A    between atoms: CB_81  and  CG_82 
REMARK       I    between atoms: C_91  and  N_93 
REMARK   36  A    between atoms: N_93  and  CA_94 
REMARK   37  A    between atoms: CA_94  and  C_95 
REMARK       I    between atoms: C_95  and  N_97 
REMARK   38  A    between atoms: N_97  and  CA_98 
REMARK   39  A    between atoms: CA_98  and  C_101 
REMARK   40  A    between atoms: CA_98  and  CB_99 
REMARK       I    between atoms: C_101  and  N_103 
REMARK   41  A    between atoms: N_103  and  CA_104 
REMARK   42  A    between atoms: CA_104  and  C_105 
ROOT
ATOM      1  CA  ARG     6     -11.747 -20.567   8.378  1.00  0.00     0.186 C 
ENDROOT
BRANCH   1   2
ATOM      2  N   ARG     6     -10.484 -20.249   9.084  1.00  0.00    -0.229 NA
ATOM      3  C   TYR     5      -9.783 -19.136   8.835  1.00  0.00     0.275 C 
ATOM      4  O   TYR     5     -10.158 -18.289   8.024  1.00  0.00    -0.268 OA
BRANCH   3   5
ATOM      5  CA  TYR     5      -8.530 -18.891   9.691  1.00  0.00     0.191 C 
BRANCH   5   6
ATOM      6  N   TYR     5      -8.256 -17.452   9.943  1.00  0.00    -0.228 NA
ATOM      7  C   GLU     4      -7.424 -16.719   9.185  1.00  0.00     0.274 C 
ATOM      8  O   GLU     4      -6.935 -17.140   8.144  1.00  0.00    -0.268 OA
BRANCH   7   9
ATOM      9  CA  GLU     4      -7.368 -15.212   9.505  1.00  0.00     0.187 C 
BRANCH   9  10
ATOM     10  CB  GLU     4      -7.635 -14.397   8.229  1.00  0.00     0.045 C 
BRANCH  10  11
ATOM     11  CG  GLU     4      -6.738 -13.159   8.008  1.00  0.00     0.100 C 
BRANCH  11  12
ATOM     12  CD  GLU     4      -7.320 -11.855   8.552  1.00  0.00     0.185 C 
ATOM     13  OE1 GLU     4      -7.490 -11.773   9.796  1.00  0.00    -0.647 OA
ATOM     14  OE2 GLU     4      -8.007 -11.175   7.763  1.00  0.00    -0.647 OA
ENDBRANCH  11  12
ENDBRANCH  10  11
ENDBRANCH   9  10
BRANCH   9  15
ATOM     15  N   GLU     4      -6.075 -14.785  10.074  1.00  0.00    -0.229 NA
ATOM     16  C   PRO     3      -4.863 -14.918   9.547  1.00  0.00     0.272 C 
ATOM     17  O   PRO     3      -4.664 -15.082   8.342  1.00  0.00    -0.269 OA
BRANCH  16  18
ATOM     18  CA  PRO     3      -3.717 -14.368  10.398  1.00  0.00     0.165 C 
ATOM     19  N   PRO     3      -2.417 -15.046  10.203  1.00  0.00    -0.312 N 
ATOM     20  CD  PRO     3      -1.325 -14.040  10.199  1.00  0.00     0.105 C 
ATOM     21  C   ASP     2      -2.262 -16.383  10.194  1.00  0.00     0.257 C 
ATOM     22  CG  PRO     3      -2.012 -12.732  10.621  1.00  0.00     0.027 C 
ATOM     23  CB  PRO     3      -3.442 -12.893  10.114  1.00  0.00     0.034 C 
ATOM     24  O   ASP     2      -3.184 -17.123  10.566  1.00  0.00    -0.270 OA
BRANCH  21  25
ATOM     25  CA  ASP     2      -0.842 -16.982  10.069  1.00  0.00     0.195 C 
BRANCH  25  26
ATOM     26  CB  ASP     2       0.144 -16.229   9.140  1.00  0.00     0.132 C 
BRANCH  26  27
ATOM     27  CG  ASP     2       1.596 -16.638   9.452  1.00  0.00     0.188 C 
ATOM     28  OD2 ASP     2       1.846 -16.865  10.663  1.00  0.00    -0.647 OA
ATOM     29  OD1 ASP     2       2.486 -16.182   8.692  1.00  0.00    -0.647 OA
ENDBRANCH  26  27
ENDBRANCH  25  26
BRANCH  25  30
ATOM     30  N   ASP     2      -0.862 -18.333   9.485  1.00  0.00    -0.228 NA
ATOM     31  C   TYR     1      -0.565 -19.457  10.095  1.00  0.00     0.289 C 
ATOM     32  O   TYR     1      -0.345 -19.634  11.298  1.00  0.00    -0.268 OA
BRANCH  31  33
ATOM     33  CA  TYR     1      -0.483 -20.630   9.124  1.00  0.00     0.385 C 
ATOM     34  N   TYR     1       0.877 -21.190   9.207  1.00  0.00     0.626 N 
BRANCH  33  35
ATOM     35  CB  TYR     1      -1.555 -21.637   9.534  1.00  0.00     0.075 C 
BRANCH  35  36
ATOM     36  CG  TYR     1      -2.880 -21.444   8.781  1.00  0.00    -0.019 A 
ATOM     37  CD2 TYR     1      -3.501 -22.498   8.129  1.00  0.00    -0.002 A 
ATOM     38  CE2 TYR     1      -4.760 -22.330   7.573  1.00  0.00     0.027 A 
ATOM     39  CZ  TYR     1      -5.388 -21.089   7.673  1.00  0.00     0.131 A 
ATOM     40  CE1 TYR     1      -4.745 -20.030   8.290  1.00  0.00     0.027 A 
ATOM     41  OH  TYR     1      -6.679 -20.950   7.311  1.00  0.00    -0.190 OA
ATOM     42  CD1 TYR     1      -3.486 -20.198   8.845  1.00  0.00    -0.002 A 
ENDBRANCH  35  36
ENDBRANCH  33  35
ENDBRANCH  31  33
ENDBRANCH  25  30
ENDBRANCH  21  25
ENDBRANCH  16  18
ENDBRANCH   9  15
ENDBRANCH   7   9
ENDBRANCH   5   6
BRANCH   5  43
ATOM     43  CB  TYR     5      -8.617 -19.653  11.024  1.00  0.00     0.060 C 
BRANCH  43  44
ATOM     44  CG  TYR     5      -7.755 -20.927  11.025  1.00  0.00    -0.020 A 
ATOM     45  CD2 TYR     5      -8.324 -22.166  10.765  1.00  0.00    -0.002 A 
ATOM     46  CE2 TYR     5      -7.534 -23.312  10.761  1.00  0.00     0.027 A 
ATOM     47  CZ  TYR     5      -6.175 -23.218  11.018  1.00  0.00     0.131 A 
ATOM     48  CE1 TYR     5      -5.594 -21.979  11.262  1.00  0.00     0.027 A 
ATOM     49  OH  TYR     5      -5.429 -24.336  11.153  1.00  0.00    -0.190 OA
ATOM     50  CD1 TYR     5      -6.390 -20.833  11.274  1.00  0.00    -0.002 A 
ENDBRANCH  43  44
ENDBRANCH   5  43
ENDBRANCH   3   5
ENDBRANCH   1   2
BRANCH   1  51
ATOM     51  CB  ARG     6     -11.902 -22.055   8.079  1.00  0.00     0.036 C 
BRANCH  51  52
ATOM     52  CG  ARG     6     -12.932 -22.757   8.968  1.00  0.00     0.029 C 
BRANCH  52  53
ATOM     53  CD  ARG     6     -13.089 -24.216   8.549  1.00  0.00     0.145 C 
BRANCH  53  54
ATOM     54  NE  ARG     6     -14.171 -24.868   9.305  1.00  0.00    -0.083 NA
ATOM     55  CZ  ARG     6     -14.031 -25.486  10.493  1.00  0.00     0.782 C 
ATOM     56  NH2 ARG     6     -15.063 -26.120  11.053  1.00  0.00     0.063 N 
ATOM     57  NH1 ARG     6     -12.841 -25.547  11.081  1.00  0.00     0.063 N 
ENDBRANCH  53  54
ENDBRANCH  52  53
ENDBRANCH  51  52
ENDBRANCH   1  51
BRANCH   1  58
ATOM     58  C   ARG     6     -12.988 -20.149   9.177  1.00  0.00     0.274 C 
ATOM     59  N   ASN     7     -13.408 -18.902   8.981  1.00  0.00    -0.228 NA
ATOM     60  O   ARG     6     -13.514 -20.961   9.940  1.00  0.00    -0.268 OA
BRANCH  59  61
ATOM     61  CA  ASN     7     -14.638 -18.352   9.585  1.00  0.00     0.196 C 
BRANCH  61  62
ATOM     62  C   ASN     7     -15.502 -17.615   8.543  1.00  0.00     0.275 C 
ATOM     63  N   PHE     8     -16.611 -17.010   8.992  1.00  0.00    -0.228 NA
ATOM     64  O   ASN     7     -14.961 -17.296   7.501  1.00  0.00    -0.268 OA
BRANCH  63  65
ATOM     65  CA  PHE     8     -17.521 -16.182   8.162  1.00  0.00     0.191 C 
BRANCH  65  66
ATOM     66  CB  PHE     8     -18.938 -16.299   8.740  1.00  0.00     0.060 C 
BRANCH  66  67
ATOM     67  CG  PHE     8     -19.370 -17.738   9.081  1.00  0.00    -0.020 A 
ATOM     68  CD1 PHE     8     -19.394 -18.707   8.088  1.00  0.00    -0.004 A 
ATOM     69  CE1 PHE     8     -19.882 -19.982   8.375  1.00  0.00    -0.000 A 
ATOM     70  CZ  PHE     8     -20.325 -20.278   9.654  1.00  0.00    -0.000 A 
ATOM     71  CE2 PHE     8     -20.289 -19.312  10.654  1.00  0.00    -0.000 A 
ATOM     72  CD2 PHE     8     -19.801 -18.037  10.368  1.00  0.00    -0.004 A 
ENDBRANCH  66  67
ENDBRANCH  65  66
BRANCH  65  73
ATOM     73  C   PHE     8     -17.092 -14.707   7.997  1.00  0.00     0.275 C 
ATOM     74  N   TRP     9     -16.168 -14.258   8.848  1.00  0.00    -0.228 NA
ATOM     75  O   PHE     8     -17.745 -13.932   7.294  1.00  0.00    -0.268 OA
BRANCH  74  76
ATOM     76  CA  TRP     9     -15.575 -12.903   8.725  1.00  0.00     0.191 C 
BRANCH  76  77
ATOM     77  CB  TRP     9     -15.678 -12.192  10.084  1.00  0.00     0.062 C 
BRANCH  77  78
ATOM     78  CG  TRP     9     -16.425 -10.862  10.013  1.00  0.00     0.001 A 
ATOM     79  CD1 TRP     9     -15.869  -9.659   9.903  1.00  0.00     0.095 A 
ATOM     80  NE1 TRP     9     -16.773  -8.722  10.164  1.00  0.00    -0.244 NA
ATOM     81  CE2 TRP     9     -17.938  -9.293  10.430  1.00  0.00     0.081 A 
ATOM     82  CD2 TRP     9     -17.759 -10.665  10.357  1.00  0.00     0.015 A 
ATOM     83  CZ2 TRP     9     -19.169  -8.783  10.845  1.00  0.00     0.019 A 
ATOM     84  CE3 TRP     9     -18.781 -11.535  10.707  1.00  0.00     0.001 A 
ATOM     85  CZ3 TRP     9     -20.004 -11.029  11.134  1.00  0.00     0.000 A 
ATOM     86  CH2 TRP     9     -20.198  -9.650  11.183  1.00  0.00     0.002 A 
ENDBRANCH  77  78
ENDBRANCH  76  77
BRANCH  76  87
ATOM     87  C   TRP     9     -14.130 -12.883   8.178  1.00  0.00     0.275 C 
ATOM     88  O   TRP     9     -13.738 -13.747   7.400  1.00  0.00    -0.268 OA
ATOM     89  N   GLY    10     -13.387 -11.831   8.520  1.00  0.00    -0.226 NA
BRANCH  89  90
ATOM     90  CA  GLY    10     -11.988 -11.608   8.061  1.00  0.00     0.218 C 
BRANCH  90  91
ATOM     91  C   GLY    10     -11.164 -10.582   8.857  1.00  0.00     0.277 C 
ATOM     92  N   CYS    11     -11.061  -9.381   8.290  1.00  0.00    -0.228 NA
ATOM     93  O   GLY    10     -10.522 -10.928   9.842  1.00  0.00    -0.268 OA
BRANCH  92  94
ATOM     94  CA  CYS    11     -10.351  -8.204   8.840  1.00  0.00     0.198 C 
BRANCH  94  95
ATOM     95  C   CYS    11     -11.122  -6.939   8.414  1.00  0.00     0.275 C 
ATOM     96  O   CYS    11     -10.508  -6.017   7.888  1.00  0.00    -0.268 OA
ATOM     97  N   GLY    12     -12.377  -6.855   8.830  1.00  0.00    -0.225 NA
BRANCH  97  98
ATOM     98  CA  GLY    12     -13.247  -5.708   8.526  1.00  0.00     0.226 C 
BRANCH  98  99
ATOM     99  C   GLY    12     -14.127  -5.434   9.767  1.00  0.00     0.211 C 
ATOM    100  O1  GLY    12     -13.984  -6.214  10.743  1.00  0.00    -0.646 OA
ATOM    101  O2  GLY    12     -14.886  -4.448   9.734  1.00  0.00    -0.646 OA
ENDBRANCH  98  99
ENDBRANCH  97  98
ENDBRANCH  94  95
BRANCH  94 102
ATOM    102  CB  CYS    11      -8.969  -8.079   8.203  1.00  0.00     0.103 C 
ATOM    103  SG  CYS    11      -7.579  -7.737   9.350  1.00  0.00    -0.080 SA
ENDBRANCH  94 102
ENDBRANCH  92  94
ENDBRANCH  90  91
ENDBRANCH  89  90
ENDBRANCH  76  87
ENDBRANCH  74  76
ENDBRANCH  65  73
ENDBRANCH  63  65
ENDBRANCH  61  62
BRANCH  61 104
ATOM    104  CB  ASN     7     -14.314 -17.435  10.771  1.00  0.00     0.126 C 
BRANCH 104 105
ATOM    105  CG  ASN     7     -13.412 -16.234  10.433  1.00  0.00     0.276 C 
ATOM    106  ND2 ASN     7     -13.598 -15.152  11.154  1.00  0.00    -0.107 N 
ATOM    107  OD1 ASN     7     -12.665 -16.167   9.465  1.00  0.00    -0.269 OA
ENDBRANCH 104 105
ENDBRANCH  61 104
ENDBRANCH  59  61
ENDBRANCH   1  58
TORSDOF 42
ENDMDL
MODEL 7
REMARK VINA RESULT:      -1.9     17.671     25.499
REMARK WARNING: 32 MAX_TORS EXCEEDED!!!
REMARK  42 active torsions:
REMARK  status: ('A' for Active; 'I' for Inactive)
REMARK    1  A    between atoms: CA_2  and  CB_3 
REMARK    2  A    between atoms: CA_2  and  C_11 
REMARK    3  A    between atoms: CB_3  and  CG_4 
REMARK       I    between atoms: C_11  and  N_13 
REMARK    4  A    between atoms: N_13  and  CA_14 
REMARK    5  A    between atoms: CA_14  and  CB_15 
REMARK    6  A    between atoms: CA_14  and  C_19 
REMARK    7  A    between atoms: CB_15  and  CG_16 
REMARK       I    between atoms: C_19  and  N_21 
REMARK    8  A    between atoms: CA_22  and  C_26 
REMARK       I    between atoms: C_26  and  N_28 
REMARK    9  A    between atoms: N_28  and  CA_29 
REMARK   10  A    between atoms: CA_29  and  C_35 
REMARK   11  A    between atoms: CA_29  and  CB_30 
REMARK   12  A    between atoms: CB_30  and  CG_31 
REMARK   13  A    between atoms: CG_31  and  CD_32 
REMARK       I    between atoms: C_35  and  N_37 
REMARK   14  A    between atoms: N_37  and  CA_38 
REMARK   15  A    between atoms: CA_38  and  CB_39 
REMARK   16  A    between atoms: CA_38  and  C_47 
REMARK   17  A    between atoms: CB_39  and  CG_40 
REMARK       I    between atoms: C_47  and  N_49 
REMARK   18  A    between atoms: N_49  and  CA_50 
REMARK   19  A    between atoms: CA_50  and  CB_51 
REMARK   20  A    between atoms: CA_50  and  C_58 
REMARK   21  A    between atoms: CB_51  and  CG_52 
REMARK   22  A    between atoms: CG_52  and  CD_53 
REMARK   23  A    between atoms: CD_53  and  NE_54 
REMARK       I    between atoms: C_58  and  N_60 
REMARK   24  A    between atoms: N_60  and  CA_61 
REMARK   25  A    between atoms: CA_61  and  C_66 
REMARK   26  A    between atoms: CA_61  and  CB_62 
REMARK   27  A    between atoms: CB_62  and  CG_63 
REMARK       I    between atoms: C_66  and  N_68 
REMARK   28  A    between atoms: N_68  and  CA_69 
REMARK   29  A    between atoms: CA_69  and  CB_70 
REMARK   30  A    between atoms: CA_69  and  C_77 
REMARK   31  A    between atoms: CB_70  and  CG_71 
REMARK       I    between atoms: C_77  and  N_79 
REMARK   32  A    between atoms: N_79  and  CA_80 
REMARK   33  A    between atoms: CA_80  and  CB_81 
REMARK   34  A    between atoms: CA_80  and  C_91 
REMARK   35  A    between atoms: CB_81  and  CG_82 
REMARK       I    between atoms: C_91  and  N_93 
REMARK   36  A    between atoms: N_93  and  CA_94 
REMARK   37  A    between atoms: CA_94  and  C_95 
REMARK       I    between atoms: C_95  and  N_97 
REMARK   38  A    between atoms: N_97  and  CA_98 
REMARK   39  A    between atoms: CA_98  and  C_101 
REMARK   40  A    between atoms: CA_98  and  CB_99 
REMARK       I    between atoms: C_101  and  N_103 
REMARK   41  A    between atoms: N_103  and  CA_104 
REMARK   42  A    between atoms: CA_104  and  C_105 
ROOT
ATOM      1  CA  ARG     6     -11.789 -20.655   8.390  1.00  0.00     0.186 C 
ENDROOT
BRANCH   1   2
ATOM      2  N   ARG     6     -10.487 -20.394   9.047  1.00  0.00    -0.229 NA
ATOM      3  C   TYR     5      -9.762 -19.296   8.793  1.00  0.00     0.275 C 
ATOM      4  O   TYR     5     -10.145 -18.419   8.019  1.00  0.00    -0.268 OA
BRANCH   3   5
ATOM      5  CA  TYR     5      -8.465 -19.111   9.598  1.00  0.00     0.191 C 
BRANCH   5   6
ATOM      6  N   TYR     5      -8.119 -17.688   9.845  1.00  0.00    -0.228 NA
ATOM      7  C   GLU     4      -7.194 -17.023   9.133  1.00  0.00     0.274 C 
ATOM      8  O   GLU     4      -6.665 -17.495   8.135  1.00  0.00    -0.268 OA
BRANCH   7   9
ATOM      9  CA  GLU     4      -7.064 -15.516   9.431  1.00  0.00     0.187 C 
BRANCH   9  10
ATOM     10  CB  GLU     4      -7.244 -14.710   8.134  1.00  0.00     0.045 C 
BRANCH  10  11
ATOM     11  CG  GLU     4      -6.666 -13.278   8.133  1.00  0.00     0.100 C 
BRANCH  11  12
ATOM     12  CD  GLU     4      -7.628 -12.210   8.652  1.00  0.00     0.185 C 
ATOM     13  OE1 GLU     4      -7.990 -12.294   9.855  1.00  0.00    -0.647 OA
ATOM     14  OE2 GLU     4      -8.343 -11.640   7.804  1.00  0.00    -0.647 OA
ENDBRANCH  11  12
ENDBRANCH  10  11
ENDBRANCH   9  10
BRANCH   9  15
ATOM     15  N   GLU     4      -5.768 -15.151  10.035  1.00  0.00    -0.229 NA
ATOM     16  C   PRO     3      -4.564 -15.183   9.475  1.00  0.00     0.272 C 
ATOM     17  O   PRO     3      -4.384 -15.167   8.257  1.00  0.00    -0.269 OA
BRANCH  16  18
ATOM     18  CA  PRO     3      -3.412 -14.741  10.379  1.00  0.00     0.165 C 
ATOM     19  N   PRO     3      -2.120 -15.408  10.111  1.00  0.00    -0.312 N 
ATOM     20  CD  PRO     3      -1.016 -14.419  10.214  1.00  0.00     0.105 C 
ATOM     21  C   ASP     2      -1.978 -16.737   9.958  1.00  0.00     0.257 C 
ATOM     22  CG  PRO     3      -1.689 -13.157  10.775  1.00  0.00     0.027 C 
ATOM     23  CB  PRO     3      -3.121 -13.247  10.256  1.00  0.00     0.034 C 
ATOM     24  O   ASP     2      -2.909 -17.504  10.249  1.00  0.00    -0.270 OA
BRANCH  21  25
ATOM     25  CA  ASP     2      -0.566 -17.335   9.768  1.00  0.00     0.195 C 
BRANCH  25  26
ATOM     26  CB  ASP     2       0.472 -16.435   9.049  1.00  0.00     0.132 C 
BRANCH  26  27
ATOM     27  CG  ASP     2       1.899 -16.783   9.512  1.00  0.00     0.188 C 
ATOM     28  OD2 ASP     2       2.720 -17.035   8.594  1.00  0.00    -0.647 OA
ATOM     29  OD1 ASP     2       2.008 -17.339  10.634  1.00  0.00    -0.647 OA
ENDBRANCH  26  27
ENDBRANCH  25  26
BRANCH  25  30
ATOM     30  N   ASP     2      -0.584 -18.539   8.920  1.00  0.00    -0.228 NA
ATOM     31  C   TYR     1      -0.166 -19.739   9.252  1.00  0.00     0.289 C 
ATOM     32  O   TYR     1       0.195 -20.138  10.363  1.00  0.00    -0.268 OA
BRANCH  31  33
ATOM     33  CA  TYR     1      -0.136 -20.684   8.054  1.00  0.00     0.385 C 
ATOM     34  N   TYR     1       1.266 -21.066   7.818  1.00  0.00     0.626 N 
BRANCH  33  35
ATOM     35  CB  TYR     1      -1.018 -21.882   8.398  1.00  0.00     0.075 C 
BRANCH  35  36
ATOM     36  CG  TYR     1      -2.518 -21.587   8.242  1.00  0.00    -0.019 A 
ATOM     37  CD2 TYR     1      -2.981 -20.302   8.007  1.00  0.00    -0.002 A 
ATOM     38  CE2 TYR     1      -4.324 -20.083   7.736  1.00  0.00     0.027 A 
ATOM     39  CZ  TYR     1      -5.198 -21.168   7.711  1.00  0.00     0.131 A 
ATOM     40  CE1 TYR     1      -4.736 -22.443   7.986  1.00  0.00     0.027 A 
ATOM     41  OH  TYR     1      -6.462 -21.011   7.268  1.00  0.00    -0.190 OA
ATOM     42  CD1 TYR     1      -3.394 -22.662   8.257  1.00  0.00    -0.002 A 
ENDBRANCH  35  36
ENDBRANCH  33  35
ENDBRANCH  31  33
ENDBRANCH  25  30
ENDBRANCH  21  25
ENDBRANCH  16  18
ENDBRANCH   9  15
ENDBRANCH   7   9
ENDBRANCH   5   6
BRANCH   5  43
ATOM     43  CB  TYR     5      -8.532 -19.876  10.931  1.00  0.00     0.060 C 
BRANCH  43  44
ATOM     44  CG  TYR     5      -7.375 -20.877  11.088  1.00  0.00    -0.020 A 
ATOM     45  CD2 TYR     5      -6.062 -20.432  11.171  1.00  0.00    -0.002 A 
ATOM     46  CE2 TYR     5      -5.022 -21.344  11.320  1.00  0.00     0.027 A 
ATOM     47  CZ  TYR     5      -5.295 -22.702  11.387  1.00  0.00     0.131 A 
ATOM     48  CE1 TYR     5      -6.608 -23.154  11.323  1.00  0.00     0.027 A 
ATOM     49  OH  TYR     5      -4.286 -23.600  11.392  1.00  0.00    -0.190 OA
ATOM     50  CD1 TYR     5      -7.648 -22.238  11.164  1.00  0.00    -0.002 A 
ENDBRANCH  43  44
ENDBRANCH   5  43
ENDBRANCH   3   5
ENDBRANCH   1   2
BRANCH   1  51
ATOM     51  CB  ARG     6     -12.016 -22.133   8.089  1.00  0.00     0.036 C 
BRANCH  51  52
ATOM     52  CG  ARG     6     -11.885 -23.038   9.317  1.00  0.00     0.029 C 
BRANCH  52  53
ATOM     53  CD  ARG     6     -11.470 -24.445   8.898  1.00  0.00     0.145 C 
BRANCH  53  54
ATOM     54  NE  ARG     6     -10.024 -24.647   9.089  1.00  0.00    -0.083 NA
ATOM     55  CZ  ARG     6      -9.456 -25.717   9.679  1.00  0.00     0.782 C 
ATOM     56  NH2 ARG     6      -8.137 -25.761   9.876  1.00  0.00     0.063 N 
ATOM     57  NH1 ARG     6     -10.211 -26.703  10.149  1.00  0.00     0.063 N 
ENDBRANCH  53  54
ENDBRANCH  52  53
ENDBRANCH  51  52
ENDBRANCH   1  51
BRANCH   1  58
ATOM     58  C   ARG     6     -12.979 -20.193   9.241  1.00  0.00     0.274 C 
ATOM     59  N   ASN     7     -13.361 -18.931   9.061  1.00  0.00    -0.228 NA
ATOM     60  O   ARG     6     -13.501 -20.986  10.026  1.00  0.00    -0.268 OA
BRANCH  59  61
ATOM     61  CA  ASN     7     -14.545 -18.338   9.716  1.00  0.00     0.196 C 
BRANCH  61  62
ATOM     62  C   ASN     7     -15.504 -17.704   8.690  1.00  0.00     0.275 C 
ATOM     63  N   PHE     8     -16.701 -17.305   9.143  1.00  0.00    -0.228 NA
ATOM     64  O   ASN     7     -15.009 -17.257   7.673  1.00  0.00    -0.268 OA
BRANCH  63  65
ATOM     65  CA  PHE     8     -17.723 -16.598   8.332  1.00  0.00     0.191 C 
BRANCH  65  66
ATOM     66  CB  PHE     8     -19.110 -16.980   8.866  1.00  0.00     0.060 C 
BRANCH  66  67
ATOM     67  CG  PHE     8     -19.445 -18.479   8.753  1.00  0.00    -0.020 A 
ATOM     68  CD1 PHE     8     -19.476 -19.270   9.893  1.00  0.00    -0.004 A 
ATOM     69  CE1 PHE     8     -19.678 -20.645   9.779  1.00  0.00    -0.000 A 
ATOM     70  CZ  PHE     8     -19.862 -21.212   8.528  1.00  0.00    -0.000 A 
ATOM     71  CE2 PHE     8     -19.845 -20.420   7.385  1.00  0.00    -0.000 A 
ATOM     72  CD2 PHE     8     -19.642 -19.044   7.500  1.00  0.00    -0.004 A 
ENDBRANCH  66  67
ENDBRANCH  65  66
BRANCH  65  73
ATOM     73  C   PHE     8     -17.545 -15.065   8.249  1.00  0.00     0.275 C 
ATOM     74  N   TRP     9     -16.909 -14.486   9.269  1.00  0.00    -0.228 NA
ATOM     75  O   PHE     8     -18.172 -14.398   7.423  1.00  0.00    -0.268 OA
BRANCH  74  76
ATOM     76  CA  TRP     9     -16.561 -13.044   9.263  1.00  0.00     0.191 C 
BRANCH  76  77
ATOM     77  CB  TRP     9     -15.979 -12.680   7.888  1.00  0.00     0.062 C 
BRANCH  77  78
ATOM     78  CG  TRP     9     -14.482 -12.375   7.929  1.00  0.00     0.001 A 
ATOM     79  CD1 TRP     9     -13.500 -13.265   7.821  1.00  0.00     0.095 A 
ATOM     80  NE1 TRP     9     -12.352 -12.713   8.192  1.00  0.00    -0.244 NA
ATOM     81  CE2 TRP     9     -12.557 -11.449   8.530  1.00  0.00     0.081 A 
ATOM     82  CD2 TRP     9     -13.911 -11.192   8.390  1.00  0.00     0.015 A 
ATOM     83  CZ2 TRP     9     -11.725 -10.465   9.064  1.00  0.00     0.019 A 
ATOM     84  CE3 TRP     9     -14.450  -9.978   8.789  1.00  0.00     0.001 A 
ATOM     85  CZ3 TRP     9     -13.624  -9.000   9.334  1.00  0.00     0.000 A 
ATOM     86  CH2 TRP     9     -12.257  -9.244   9.452  1.00  0.00     0.002 A 
ENDBRANCH  77  78
ENDBRANCH  76  77
BRANCH  76  87
ATOM     87  C   TRP     9     -17.722 -12.102   9.658  1.00  0.00     0.275 C 
ATOM     88  O   TRP     9     -18.520 -12.419  10.534  1.00  0.00    -0.268 OA
ATOM     89  N   GLY    10     -17.736 -10.907   9.068  1.00  0.00    -0.226 NA
BRANCH  89  90
ATOM     90  CA  GLY    10     -18.744  -9.847   9.346  1.00  0.00     0.218 C 
BRANCH  90  91
ATOM     91  C   GLY    10     -18.865  -8.730   8.298  1.00  0.00     0.277 C 
ATOM     92  N   CYS    11     -18.138  -7.642   8.548  1.00  0.00    -0.228 NA
ATOM     93  O   GLY    10     -19.707  -8.797   7.409  1.00  0.00    -0.268 OA
BRANCH  92  94
ATOM     94  CA  CYS    11     -18.046  -6.430   7.703  1.00  0.00     0.198 C 
BRANCH  94  95
ATOM     95  C   CYS    11     -16.574  -5.974   7.680  1.00  0.00     0.275 C 
ATOM     96  O   CYS    11     -15.698  -6.772   7.995  1.00  0.00    -0.268 OA
ATOM     97  N   GLY    12     -16.370  -4.676   7.510  1.00  0.00    -0.225 NA
BRANCH  97  98
ATOM     98  CA  GLY    12     -15.028  -4.073   7.479  1.00  0.00     0.226 C 
BRANCH  98  99
ATOM     99  C   GLY    12     -14.979  -2.963   8.555  1.00  0.00     0.211 C 
ATOM    100  O1  GLY    12     -16.018  -2.797   9.242  1.00  0.00    -0.646 OA
ATOM    101  O2  GLY    12     -13.912  -2.336   8.693  1.00  0.00    -0.646 OA
ENDBRANCH  98  99
ENDBRANCH  97  98
ENDBRANCH  94  95
BRANCH  94 102
ATOM    102  CB  CYS    11     -18.823  -5.282   8.343  1.00  0.00     0.103 C 
ATOM    103  SG  CYS    11     -20.606  -5.585   8.649  1.00  0.00    -0.080 SA
ENDBRANCH  94 102
ENDBRANCH  92  94
ENDBRANCH  90  91
ENDBRANCH  89  90
ENDBRANCH  76  87
ENDBRANCH  74  76
ENDBRANCH  65  73
ENDBRANCH  63  65
ENDBRANCH  61  62
BRANCH  61 104
ATOM    104  CB  ASN     7     -14.136 -17.316  10.784  1.00  0.00     0.126 C 
BRANCH 104 105
ATOM    105  CG  ASN     7     -12.786 -16.618  10.529  1.00  0.00     0.276 C 
ATOM    106  ND2 ASN     7     -12.764 -15.748   9.546  1.00  0.00    -0.107 N 
ATOM    107  OD1 ASN     7     -11.726 -16.924  11.060  1.00  0.00    -0.269 OA
ENDBRANCH 104 105
ENDBRANCH  61 104
ENDBRANCH  59  61
ENDBRANCH   1  58
TORSDOF 42
ENDMDL
MODEL 8
REMARK VINA RESULT:      -1.9     26.356     34.352
REMARK WARNING: 32 MAX_TORS EXCEEDED!!!
REMARK  42 active torsions:
REMARK  status: ('A' for Active; 'I' for Inactive)
REMARK    1  A    between atoms: CA_2  and  CB_3 
REMARK    2  A    between atoms: CA_2  and  C_11 
REMARK    3  A    between atoms: CB_3  and  CG_4 
REMARK       I    between atoms: C_11  and  N_13 
REMARK    4  A    between atoms: N_13  and  CA_14 
REMARK    5  A    between atoms: CA_14  and  CB_15 
REMARK    6  A    between atoms: CA_14  and  C_19 
REMARK    7  A    between atoms: CB_15  and  CG_16 
REMARK       I    between atoms: C_19  and  N_21 
REMARK    8  A    between atoms: CA_22  and  C_26 
REMARK       I    between atoms: C_26  and  N_28 
REMARK    9  A    between atoms: N_28  and  CA_29 
REMARK   10  A    between atoms: CA_29  and  C_35 
REMARK   11  A    between atoms: CA_29  and  CB_30 
REMARK   12  A    between atoms: CB_30  and  CG_31 
REMARK   13  A    between atoms: CG_31  and  CD_32 
REMARK       I    between atoms: C_35  and  N_37 
REMARK   14  A    between atoms: N_37  and  CA_38 
REMARK   15  A    between atoms: CA_38  and  CB_39 
REMARK   16  A    between atoms: CA_38  and  C_47 
REMARK   17  A    between atoms: CB_39  and  CG_40 
REMARK       I    between atoms: C_47  and  N_49 
REMARK   18  A    between atoms: N_49  and  CA_50 
REMARK   19  A    between atoms: CA_50  and  CB_51 
REMARK   20  A    between atoms: CA_50  and  C_58 
REMARK   21  A    between atoms: CB_51  and  CG_52 
REMARK   22  A    between atoms: CG_52  and  CD_53 
REMARK   23  A    between atoms: CD_53  and  NE_54 
REMARK       I    between atoms: C_58  and  N_60 
REMARK   24  A    between atoms: N_60  and  CA_61 
REMARK   25  A    between atoms: CA_61  and  C_66 
REMARK   26  A    between atoms: CA_61  and  CB_62 
REMARK   27  A    between atoms: CB_62  and  CG_63 
REMARK       I    between atoms: C_66  and  N_68 
REMARK   28  A    between atoms: N_68  and  CA_69 
REMARK   29  A    between atoms: CA_69  and  CB_70 
REMARK   30  A    between atoms: CA_69  and  C_77 
REMARK   31  A    between atoms: CB_70  and  CG_71 
REMARK       I    between atoms: C_77  and  N_79 
REMARK   32  A    between atoms: N_79  and  CA_80 
REMARK   33  A    between atoms: CA_80  and  CB_81 
REMARK   34  A    between atoms: CA_80  and  C_91 
REMARK   35  A    between atoms: CB_81  and  CG_82 
REMARK       I    between atoms: C_91  and  N_93 
REMARK   36  A    between atoms: N_93  and  CA_94 
REMARK   37  A    between atoms: CA_94  and  C_95 
REMARK       I    between atoms: C_95  and  N_97 
REMARK   38  A    between atoms: N_97  and  CA_98 
REMARK   39  A    between atoms: CA_98  and  C_101 
REMARK   40  A    between atoms: CA_98  and  CB_99 
REMARK       I    between atoms: C_101  and  N_103 
REMARK   41  A    between atoms: N_103  and  CA_104 
REMARK   42  A    between atoms: CA_104  and  C_105 
ROOT
ATOM      1  CA  ARG     6       2.436 -20.380   8.539  1.00  0.00     0.186 C 
ENDROOT
BRANCH   1   2
ATOM      2  N   ARG     6       0.958 -20.291   8.576  1.00  0.00    -0.229 NA
ATOM      3  C   TYR     5       0.310 -19.119   8.618  1.00  0.00     0.275 C 
ATOM      4  O   TYR     5       0.901 -18.039   8.600  1.00  0.00    -0.268 OA
BRANCH   3   5
ATOM      5  CA  TYR     5      -1.226 -19.166   8.577  1.00  0.00     0.191 C 
BRANCH   5   6
ATOM      6  N   TYR     5      -1.865 -17.839   8.772  1.00  0.00    -0.228 NA
ATOM      7  C   GLU     4      -2.243 -17.376   9.975  1.00  0.00     0.274 C 
ATOM      8  O   GLU     4      -1.965 -17.949  11.021  1.00  0.00    -0.268 OA
BRANCH   7   9
ATOM      9  CA  GLU     4      -2.760 -15.923  10.010  1.00  0.00     0.187 C 
BRANCH   9  10
ATOM     10  CB  GLU     4      -2.468 -15.298  11.384  1.00  0.00     0.045 C 
BRANCH  10  11
ATOM     11  CG  GLU     4      -1.524 -14.075  11.391  1.00  0.00     0.100 C 
BRANCH  11  12
ATOM     12  CD  GLU     4      -2.202 -12.756  11.021  1.00  0.00     0.185 C 
ATOM     13  OE1 GLU     4      -3.459 -12.752  10.950  1.00  0.00    -0.647 OA
ATOM     14  OE2 GLU     4      -1.518 -11.937  10.374  1.00  0.00    -0.647 OA
ENDBRANCH  11  12
ENDBRANCH  10  11
ENDBRANCH   9  10
BRANCH   9  15
ATOM     15  N   GLU     4      -4.206 -15.813   9.740  1.00  0.00    -0.229 NA
ATOM     16  C   PRO     3      -4.818 -15.037   8.853  1.00  0.00     0.272 C 
ATOM     17  O   PRO     3      -4.254 -14.564   7.865  1.00  0.00    -0.269 OA
BRANCH  16  18
ATOM     18  CA  PRO     3      -6.343 -15.157   8.822  1.00  0.00     0.165 C 
ATOM     19  N   PRO     3      -7.056 -13.924   8.424  1.00  0.00    -0.312 N 
ATOM     20  CD  PRO     3      -8.192 -14.271   7.533  1.00  0.00     0.105 C 
ATOM     21  C   ASP     2      -6.792 -12.706   8.931  1.00  0.00     0.257 C 
ATOM     22  CG  PRO     3      -8.264 -15.805   7.588  1.00  0.00     0.027 C 
ATOM     23  CB  PRO     3      -6.820 -16.227   7.843  1.00  0.00     0.034 C 
ATOM     24  O   ASP     2      -6.068 -12.588   9.931  1.00  0.00    -0.270 OA
BRANCH  21  25
ATOM     25  CA  ASP     2      -7.659 -11.501   8.504  1.00  0.00     0.195 C 
BRANCH  25  26
ATOM     26  CB  ASP     2      -6.969 -10.112   8.528  1.00  0.00     0.132 C 
BRANCH  26  27
ATOM     27  CG  ASP     2      -5.813 -10.104   9.545  1.00  0.00     0.188 C 
ATOM     28  OD2 ASP     2      -6.020  -9.444  10.595  1.00  0.00    -0.647 OA
ATOM     29  OD1 ASP     2      -4.651 -10.210   9.080  1.00  0.00    -0.647 OA
ENDBRANCH  26  27
ENDBRANCH  25  26
BRANCH  25  30
ATOM     30  N   ASP     2      -8.809 -11.299   9.402  1.00  0.00    -0.228 NA
ATOM     31  C   TYR     1      -9.999 -10.859   9.067  1.00  0.00     0.289 C 
ATOM     32  O   TYR     1     -10.443 -10.655   7.932  1.00  0.00    -0.268 OA
BRANCH  31  33
ATOM     33  CA  TYR     1     -10.867 -10.572  10.288  1.00  0.00     0.385 C 
ATOM     34  N   TYR     1     -10.462  -9.264  10.831  1.00  0.00     0.626 N 
BRANCH  33  35
ATOM     35  CB  TYR     1     -12.322 -10.588   9.827  1.00  0.00     0.075 C 
BRANCH  35  36
ATOM     36  CG  TYR     1     -12.812 -11.990   9.433  1.00  0.00    -0.019 A 
ATOM     37  CD2 TYR     1     -13.865 -12.165   8.548  1.00  0.00    -0.002 A 
ATOM     38  CE2 TYR     1     -14.199 -13.436   8.105  1.00  0.00     0.027 A 
ATOM     39  CZ  TYR     1     -13.468 -14.531   8.564  1.00  0.00     0.131 A 
ATOM     40  CE1 TYR     1     -12.445 -14.352   9.478  1.00  0.00     0.027 A 
ATOM     41  OH  TYR     1     -13.647 -15.747   8.010  1.00  0.00    -0.190 OA
ATOM     42  CD1 TYR     1     -12.111 -13.082   9.922  1.00  0.00    -0.002 A 
ENDBRANCH  35  36
ENDBRANCH  33  35
ENDBRANCH  31  33
ENDBRANCH  25  30
ENDBRANCH  21  25
ENDBRANCH  16  18
ENDBRANCH   9  15
ENDBRANCH   7   9
ENDBRANCH   5   6
BRANCH   5  43
ATOM     43  CB  TYR     5      -1.722 -19.803   7.268  1.00  0.00     0.060 C 
BRANCH  43  44
ATOM     44  CG  TYR     5      -2.632 -21.017   7.517  1.00  0.00    -0.020 A 
ATOM     45  CD2 TYR     5      -4.014 -20.886   7.470  1.00  0.00    -0.002 A 
ATOM     46  CE2 TYR     5      -4.830 -21.992   7.689  1.00  0.00     0.027 A 
ATOM     47  CZ  TYR     5      -4.263 -23.229   7.957  1.00  0.00     0.131 A 
ATOM     48  CE1 TYR     5      -2.880 -23.372   7.988  1.00  0.00     0.027 A 
ATOM     49  OH  TYR     5      -5.044 -24.273   8.308  1.00  0.00    -0.190 OA
ATOM     50  CD1 TYR     5      -2.065 -22.260   7.777  1.00  0.00    -0.002 A 
ENDBRANCH  43  44
ENDBRANCH   5  43
ENDBRANCH   3   5
ENDBRANCH   1   2
BRANCH   1  51
ATOM     51  CB  ARG     6       3.120 -19.095   8.997  1.00  0.00     0.036 C 
BRANCH  51  52
ATOM     52  CG  ARG     6       4.615 -19.045   8.674  1.00  0.00     0.029 C 
BRANCH  52  53
ATOM     53  CD  ARG     6       5.424 -18.783   9.940  1.00  0.00     0.145 C 
BRANCH  53  54
ATOM     54  NE  ARG     6       6.224 -17.554   9.810  1.00  0.00    -0.083 NA
ATOM     55  CZ  ARG     6       7.456 -17.365  10.321  1.00  0.00     0.782 C 
ATOM     56  NH2 ARG     6       8.060 -16.180  10.215  1.00  0.00     0.063 N 
ATOM     57  NH1 ARG     6       8.050 -18.331  11.013  1.00  0.00     0.063 N 
ENDBRANCH  53  54
ENDBRANCH  52  53
ENDBRANCH  51  52
ENDBRANCH   1  51
BRANCH   1  58
ATOM     58  C   ARG     6       2.978 -21.506   9.428  1.00  0.00     0.274 C 
ATOM     59  N   ASN     7       3.632 -22.477   8.795  1.00  0.00    -0.228 NA
ATOM     60  O   ARG     6       2.784 -21.459  10.644  1.00  0.00    -0.268 OA
BRANCH  59  61
ATOM     61  CA  ASN     7       4.308 -23.592   9.491  1.00  0.00     0.196 C 
BRANCH  61  62
ATOM     62  C   ASN     7       3.301 -24.661   9.960  1.00  0.00     0.275 C 
ATOM     63  N   PHE     8       3.136 -25.729   9.166  1.00  0.00    -0.228 NA
ATOM     64  O   ASN     7       3.024 -24.679  11.144  1.00  0.00    -0.268 OA
BRANCH  63  65
ATOM     65  CA  PHE     8       2.281 -26.899   9.484  1.00  0.00     0.191 C 
BRANCH  65  66
ATOM     66  CB  PHE     8       0.821 -26.520   9.197  1.00  0.00     0.060 C 
BRANCH  66  67
ATOM     67  CG  PHE     8      -0.205 -27.598   9.592  1.00  0.00    -0.020 A 
ATOM     68  CD1 PHE     8      -0.192 -28.130  10.874  1.00  0.00    -0.004 A 
ATOM     69  CE1 PHE     8      -1.054 -29.178  11.200  1.00  0.00    -0.000 A 
ATOM     70  CZ  PHE     8      -1.929 -29.671  10.245  1.00  0.00    -0.000 A 
ATOM     71  CE2 PHE     8      -1.953 -29.130   8.964  1.00  0.00    -0.000 A 
ATOM     72  CD2 PHE     8      -1.091 -28.082   8.638  1.00  0.00    -0.004 A 
ENDBRANCH  66  67
ENDBRANCH  65  66
BRANCH  65  73
ATOM     73  C   PHE     8       2.681 -28.212   8.774  1.00  0.00     0.275 C 
ATOM     74  N   TRP     9       3.207 -29.166   9.544  1.00  0.00    -0.228 NA
ATOM     75  O   PHE     8       2.746 -28.272   7.544  1.00  0.00    -0.268 OA
BRANCH  74  76
ATOM     76  CA  TRP     9       3.520 -30.518   9.018  1.00  0.00     0.191 C 
BRANCH  76  77
ATOM     77  CB  TRP     9       4.975 -30.864   9.374  1.00  0.00     0.062 C 
BRANCH  77  78
ATOM     78  CG  TRP     9       5.978 -29.815   8.894  1.00  0.00     0.001 A 
ATOM     79  CD1 TRP     9       6.128 -29.394   7.642  1.00  0.00     0.095 A 
ATOM     80  NE1 TRP     9       7.263 -28.716   7.529  1.00  0.00    -0.244 NA
ATOM     81  CE2 TRP     9       7.866 -28.664   8.708  1.00  0.00     0.081 A 
ATOM     82  CD2 TRP     9       7.083 -29.367   9.610  1.00  0.00     0.015 A 
ATOM     83  CZ2 TRP     9       9.100 -28.161   9.118  1.00  0.00     0.019 A 
ATOM     84  CE3 TRP     9       7.521 -29.590  10.907  1.00  0.00     0.001 A 
ATOM     85  CZ3 TRP     9       8.758 -29.101  11.314  1.00  0.00     0.000 A 
ATOM     86  CH2 TRP     9       9.535 -28.370  10.418  1.00  0.00     0.002 A 
ENDBRANCH  77  78
ENDBRANCH  76  77
BRANCH  76  87
ATOM     87  C   TRP     9       2.543 -31.626   9.474  1.00  0.00     0.275 C 
ATOM     88  O   TRP     9       1.329 -31.462   9.406  1.00  0.00    -0.268 OA
ATOM     89  N   GLY    10       3.095 -32.781   9.841  1.00  0.00    -0.226 NA
BRANCH  89  90
ATOM     90  CA  GLY    10       2.322 -33.980  10.270  1.00  0.00     0.218 C 
BRANCH  90  91
ATOM     91  C   GLY    10       2.073 -35.051   9.196  1.00  0.00     0.277 C 
ATOM     92  N   CYS    11       3.117 -35.834   8.928  1.00  0.00    -0.228 NA
ATOM     93  O   GLY    10       1.041 -35.042   8.534  1.00  0.00    -0.268 OA
BRANCH  92  94
ATOM     94  CA  CYS    11       3.153 -36.955   7.962  1.00  0.00     0.198 C 
BRANCH  94  95
ATOM     95  C   CYS    11       2.112 -38.002   8.403  1.00  0.00     0.275 C 
ATOM     96  O   CYS    11       1.877 -38.141   9.599  1.00  0.00    -0.268 OA
ATOM     97  N   GLY    12       1.680 -38.826   7.461  1.00  0.00    -0.225 NA
BRANCH  97  98
ATOM     98  CA  GLY    12       0.698 -39.892   7.716  1.00  0.00     0.226 C 
BRANCH  98  99
ATOM     99  C   GLY    12       1.475 -41.175   8.096  1.00  0.00     0.211 C 
ATOM    100  O1  GLY    12       0.798 -42.227   8.223  1.00  0.00    -0.646 OA
ATOM    101  O2  GLY    12       2.711 -41.091   8.215  1.00  0.00    -0.646 OA
ENDBRANCH  98  99
ENDBRANCH  97  98
ENDBRANCH  94  95
BRANCH  94 102
ATOM    102  CB  CYS    11       4.504 -37.664   8.030  1.00  0.00     0.103 C 
ATOM    103  SG  CYS    11       5.581 -37.217   9.446  1.00  0.00    -0.080 SA
ENDBRANCH  94 102
ENDBRANCH  92  94
ENDBRANCH  90  91
ENDBRANCH  89  90
ENDBRANCH  76  87
ENDBRANCH  74  76
ENDBRANCH  65  73
ENDBRANCH  63  65
ENDBRANCH  61  62
BRANCH  61 104
ATOM    104  CB  ASN     7       5.152 -23.084  10.667  1.00  0.00     0.126 C 
BRANCH 104 105
ATOM    105  CG  ASN     7       6.607 -22.725  10.312  1.00  0.00     0.276 C 
ATOM    106  ND2 ASN     7       6.778 -22.039   9.205  1.00  0.00    -0.107 N 
ATOM    107  OD1 ASN     7       7.597 -23.157  10.888  1.00  0.00    -0.269 OA
ENDBRANCH 104 105
ENDBRANCH  61 104
ENDBRANCH  59  61
ENDBRANCH   1  58
TORSDOF 42
ENDMDL
MODEL 9
REMARK VINA RESULT:      -1.8     18.459     24.239
REMARK WARNING: 32 MAX_TORS EXCEEDED!!!
REMARK  42 active torsions:
REMARK  status: ('A' for Active; 'I' for Inactive)
REMARK    1  A    between atoms: CA_2  and  CB_3 
REMARK    2  A    between atoms: CA_2  and  C_11 
REMARK    3  A    between atoms: CB_3  and  CG_4 
REMARK       I    between atoms: C_11  and  N_13 
REMARK    4  A    between atoms: N_13  and  CA_14 
REMARK    5  A    between atoms: CA_14  and  CB_15 
REMARK    6  A    between atoms: CA_14  and  C_19 
REMARK    7  A    between atoms: CB_15  and  CG_16 
REMARK       I    between atoms: C_19  and  N_21 
REMARK    8  A    between atoms: CA_22  and  C_26 
REMARK       I    between atoms: C_26  and  N_28 
REMARK    9  A    between atoms: N_28  and  CA_29 
REMARK   10  A    between atoms: CA_29  and  C_35 
REMARK   11  A    between atoms: CA_29  and  CB_30 
REMARK   12  A    between atoms: CB_30  and  CG_31 
REMARK   13  A    between atoms: CG_31  and  CD_32 
REMARK       I    between atoms: C_35  and  N_37 
REMARK   14  A    between atoms: N_37  and  CA_38 
REMARK   15  A    between atoms: CA_38  and  CB_39 
REMARK   16  A    between atoms: CA_38  and  C_47 
REMARK   17  A    between atoms: CB_39  and  CG_40 
REMARK       I    between atoms: C_47  and  N_49 
REMARK   18  A    between atoms: N_49  and  CA_50 
REMARK   19  A    between atoms: CA_50  and  CB_51 
REMARK   20  A    between atoms: CA_50  and  C_58 
REMARK   21  A    between atoms: CB_51  and  CG_52 
REMARK   22  A    between atoms: CG_52  and  CD_53 
REMARK   23  A    between atoms: CD_53  and  NE_54 
REMARK       I    between atoms: C_58  and  N_60 
REMARK   24  A    between atoms: N_60  and  CA_61 
REMARK   25  A    between atoms: CA_61  and  C_66 
REMARK   26  A    between atoms: CA_61  and  CB_62 
REMARK   27  A    between atoms: CB_62  and  CG_63 
REMARK       I    between atoms: C_66  and  N_68 
REMARK   28  A    between atoms: N_68  and  CA_69 
REMARK   29  A    between atoms: CA_69  and  CB_70 
REMARK   30  A    between atoms: CA_69  and  C_77 
REMARK   31  A    between atoms: CB_70  and  CG_71 
REMARK       I    between atoms: C_77  and  N_79 
REMARK   32  A    between atoms: N_79  and  CA_80 
REMARK   33  A    between atoms: CA_80  and  CB_81 
REMARK   34  A    between atoms: CA_80  and  C_91 
REMARK   35  A    between atoms: CB_81  and  CG_82 
REMARK       I    between atoms: C_91  and  N_93 
REMARK   36  A    between atoms: N_93  and  CA_94 
REMARK   37  A    between atoms: CA_94  and  C_95 
REMARK       I    between atoms: C_95  and  N_97 
REMARK   38  A    between atoms: N_97  and  CA_98 
REMARK   39  A    between atoms: CA_98  and  C_101 
REMARK   40  A    between atoms: CA_98  and  CB_99 
REMARK       I    between atoms: C_101  and  N_103 
REMARK   41  A    between atoms: N_103  and  CA_104 
REMARK   42  A    between atoms: CA_104  and  C_105 
ROOT
ATOM      1  CA  ARG     6     -11.690 -18.152   8.255  1.00  0.00     0.186 C 
ENDROOT
BRANCH   1   2
ATOM      2  N   ARG     6     -10.396 -18.139   8.975  1.00  0.00    -0.229 NA
ATOM      3  C   TYR     5      -9.465 -17.199   8.762  1.00  0.00     0.275 C 
ATOM      4  O   TYR     5      -9.637 -16.269   7.974  1.00  0.00    -0.268 OA
BRANCH   3   5
ATOM      5  CA  TYR     5      -8.198 -17.259   9.630  1.00  0.00     0.191 C 
BRANCH   5   6
ATOM      6  N   TYR     5      -7.534 -15.940   9.802  1.00  0.00    -0.228 NA
ATOM      7  C   GLU     4      -6.642 -15.448   8.927  1.00  0.00     0.274 C 
ATOM      8  O   GLU     4      -6.410 -15.981   7.850  1.00  0.00    -0.268 OA
BRANCH   7   9
ATOM      9  CA  GLU     4      -6.161 -14.006   9.190  1.00  0.00     0.187 C 
BRANCH   9  10
ATOM     10  CB  GLU     4      -5.952 -13.275   7.854  1.00  0.00     0.045 C 
BRANCH  10  11
ATOM     11  CG  GLU     4      -7.168 -12.496   7.305  1.00  0.00     0.100 C 
BRANCH  11  12
ATOM     12  CD  GLU     4      -7.568 -11.282   8.143  1.00  0.00     0.185 C 
ATOM     13  OE1 GLU     4      -8.751 -11.242   8.573  1.00  0.00    -0.647 OA
ATOM     14  OE2 GLU     4      -6.914 -10.236   7.963  1.00  0.00    -0.647 OA
ENDBRANCH  11  12
ENDBRANCH  10  11
ENDBRANCH   9  10
BRANCH   9  15
ATOM     15  N   GLU     4      -4.906 -13.943   9.963  1.00  0.00    -0.229 NA
ATOM     16  C   PRO     3      -3.696 -14.351   9.597  1.00  0.00     0.272 C 
ATOM     17  O   PRO     3      -3.361 -14.504   8.422  1.00  0.00    -0.269 OA
BRANCH  16  18
ATOM     18  CA  PRO     3      -2.595 -14.144  10.639  1.00  0.00     0.165 C 
ATOM     19  N   PRO     3      -1.365 -14.932  10.408  1.00  0.00    -0.312 N 
ATOM     20  CD  PRO     3      -0.174 -14.099  10.713  1.00  0.00     0.105 C 
ATOM     21  C   ASP     2      -1.358 -16.246  10.120  1.00  0.00     0.257 C 
ATOM     22  CG  PRO     3      -0.753 -12.828  11.354  1.00  0.00     0.027 C 
ATOM     23  CB  PRO     3      -2.129 -12.691  10.709  1.00  0.00     0.034 C 
ATOM     24  O   ASP     2      -2.392 -16.920  10.243  1.00  0.00    -0.270 OA
BRANCH  21  25
ATOM     25  CA  ASP     2      -0.008 -16.987   9.983  1.00  0.00     0.195 C 
BRANCH  25  26
ATOM     26  CB  ASP     2       1.066 -16.305   9.097  1.00  0.00     0.132 C 
BRANCH  26  27
ATOM     27  CG  ASP     2       2.473 -16.802   9.480  1.00  0.00     0.188 C 
ATOM     28  OD2 ASP     2       3.038 -17.534   8.628  1.00  0.00    -0.647 OA
ATOM     29  OD1 ASP     2       2.703 -16.956  10.705  1.00  0.00    -0.647 OA
ENDBRANCH  26  27
ENDBRANCH  25  26
BRANCH  25  30
ATOM     30  N   ASP     2      -0.162 -18.303   9.340  1.00  0.00    -0.228 NA
ATOM     31  C   TYR     1       0.254 -19.458   9.806  1.00  0.00     0.289 C 
ATOM     32  O   TYR     1       0.731 -19.702  10.919  1.00  0.00    -0.268 OA
BRANCH  31  33
ATOM     33  CA  TYR     1       0.116 -20.573   8.775  1.00  0.00     0.385 C 
ATOM     34  N   TYR     1       1.431 -21.220   8.631  1.00  0.00     0.626 N 
BRANCH  33  35
ATOM     35  CB  TYR     1      -0.955 -21.534   9.284  1.00  0.00     0.075 C 
BRANCH  35  36
ATOM     36  CG  TYR     1      -2.312 -21.346   8.588  1.00  0.00    -0.019 A 
ATOM     37  CD2 TYR     1      -2.884 -22.359   7.834  1.00  0.00    -0.002 A 
ATOM     38  CE2 TYR     1      -4.167 -22.213   7.329  1.00  0.00     0.027 A 
ATOM     39  CZ  TYR     1      -4.869 -21.035   7.585  1.00  0.00     0.131 A 
ATOM     40  CE1 TYR     1      -4.276 -20.012   8.303  1.00  0.00     0.027 A 
ATOM     41  OH  TYR     1      -6.176 -20.943   7.269  1.00  0.00    -0.190 OA
ATOM     42  CD1 TYR     1      -2.993 -20.158   8.808  1.00  0.00    -0.002 A 
ENDBRANCH  35  36
ENDBRANCH  33  35
ENDBRANCH  31  33
ENDBRANCH  25  30
ENDBRANCH  21  25
ENDBRANCH  16  18
ENDBRANCH   9  15
ENDBRANCH   7   9
ENDBRANCH   5   6
BRANCH   5  43
ATOM     43  CB  TYR     5      -8.501 -17.880  11.004  1.00  0.00     0.060 C 
BRANCH  43  44
ATOM     44  CG  TYR     5      -8.093 -19.361  11.078  1.00  0.00    -0.020 A 
ATOM     45  CD2 TYR     5      -6.763 -19.735  10.936  1.00  0.00    -0.002 A 
ATOM     46  CE2 TYR     5      -6.401 -21.077  11.012  1.00  0.00     0.027 A 
ATOM     47  CZ  TYR     5      -7.370 -22.044  11.231  1.00  0.00     0.131 A 
ATOM     48  CE1 TYR     5      -8.701 -21.676  11.392  1.00  0.00     0.027 A 
ATOM     49  OH  TYR     5      -7.049 -23.355  11.167  1.00  0.00    -0.190 OA
ATOM     50  CD1 TYR     5      -9.062 -20.331  11.306  1.00  0.00    -0.002 A 
ENDBRANCH  43  44
ENDBRANCH   5  43
ENDBRANCH   3   5
ENDBRANCH   1   2
BRANCH   1  51
ATOM     51  CB  ARG     6     -12.124 -19.555   7.841  1.00  0.00     0.036 C 
BRANCH  51  52
ATOM     52  CG  ARG     6     -11.353 -20.671   8.549  1.00  0.00     0.029 C 
BRANCH  52  53
ATOM     53  CD  ARG     6     -11.820 -22.037   8.053  1.00  0.00     0.145 C 
BRANCH  53  54
ATOM     54  NE  ARG     6     -12.792 -22.633   8.985  1.00  0.00    -0.083 NA
ATOM     55  CZ  ARG     6     -12.568 -23.707   9.766  1.00  0.00     0.782 C 
ATOM     56  NH2 ARG     6     -13.549 -24.217  10.515  1.00  0.00     0.063 N 
ATOM     57  NH1 ARG     6     -11.393 -24.325   9.736  1.00  0.00     0.063 N 
ENDBRANCH  53  54
ENDBRANCH  52  53
ENDBRANCH  51  52
ENDBRANCH   1  51
BRANCH   1  58
ATOM     58  C   ARG     6     -12.834 -17.568   9.093  1.00  0.00     0.274 C 
ATOM     59  N   ASN     7     -13.304 -16.392   8.687  1.00  0.00    -0.228 NA
ATOM     60  O   ARG     6     -13.245 -18.196  10.070  1.00  0.00    -0.268 OA
BRANCH  59  61
ATOM     61  CA  ASN     7     -14.466 -15.721   9.307  1.00  0.00     0.196 C 
BRANCH  61  62
ATOM     62  C   ASN     7     -15.478 -15.245   8.247  1.00  0.00     0.275 C 
ATOM     63  N   PHE     8     -16.751 -15.101   8.644  1.00  0.00    -0.228 NA
ATOM     64  O   ASN     7     -15.030 -14.672   7.272  1.00  0.00    -0.268 OA
BRANCH  63  65
ATOM     65  CA  PHE     8     -17.849 -14.574   7.797  1.00  0.00     0.191 C 
BRANCH  65  66
ATOM     66  CB  PHE     8     -18.920 -15.665   7.663  1.00  0.00     0.060 C 
BRANCH  66  67
ATOM     67  CG  PHE     8     -19.023 -16.607   8.878  1.00  0.00    -0.020 A 
ATOM     68  CD1 PHE     8     -18.825 -17.972   8.715  1.00  0.00    -0.004 A 
ATOM     69  CE1 PHE     8     -19.019 -18.835   9.793  1.00  0.00    -0.000 A 
ATOM     70  CZ  PHE     8     -19.394 -18.324  11.025  1.00  0.00    -0.000 A 
ATOM     71  CE2 PHE     8     -19.580 -16.955  11.194  1.00  0.00    -0.000 A 
ATOM     72  CD2 PHE     8     -19.386 -16.092  10.115  1.00  0.00    -0.004 A 
ENDBRANCH  66  67
ENDBRANCH  65  66
BRANCH  65  73
ATOM     73  C   PHE     8     -18.455 -13.235   8.275  1.00  0.00     0.275 C 
ATOM     74  N   TRP     9     -17.614 -12.373   8.849  1.00  0.00    -0.228 NA
ATOM     75  O   PHE     8     -19.677 -13.084   8.350  1.00  0.00    -0.268 OA
BRANCH  74  76
ATOM     76  CA  TRP     9     -18.034 -11.005   9.241  1.00  0.00     0.191 C 
BRANCH  76  77
ATOM     77  CB  TRP     9     -18.372 -10.207   7.971  1.00  0.00     0.062 C 
BRANCH  77  78
ATOM     78  CG  TRP     9     -17.485  -8.978   7.779  1.00  0.00     0.001 A 
ATOM     79  CD1 TRP     9     -16.160  -8.981   7.666  1.00  0.00     0.095 A 
ATOM     80  NE1 TRP     9     -15.695  -7.746   7.808  1.00  0.00    -0.244 NA
ATOM     81  CE2 TRP     9     -16.706  -6.911   7.996  1.00  0.00     0.081 A 
ATOM     82  CD2 TRP     9     -17.873  -7.660   7.998  1.00  0.00     0.015 A 
ATOM     83  CZ2 TRP     9     -16.767  -5.547   8.281  1.00  0.00     0.019 A 
ATOM     84  CE3 TRP     9     -19.094  -7.073   8.294  1.00  0.00     0.001 A 
ATOM     85  CZ3 TRP     9     -19.154  -5.715   8.592  1.00  0.00     0.000 A 
ATOM     86  CH2 TRP     9     -17.988  -4.953   8.565  1.00  0.00     0.002 A 
ENDBRANCH  77  78
ENDBRANCH  76  77
BRANCH  76  87
ATOM     87  C   TRP     9     -19.188 -10.958  10.268  1.00  0.00     0.275 C 
ATOM     88  O   TRP     9     -19.050 -11.431  11.392  1.00  0.00    -0.268 OA
ATOM     89  N   GLY    10     -20.280 -10.293   9.895  1.00  0.00    -0.226 NA
BRANCH  89  90
ATOM     90  CA  GLY    10     -21.479 -10.099  10.757  1.00  0.00     0.218 C 
BRANCH  90  91
ATOM     91  C   GLY    10     -22.807  -9.834  10.029  1.00  0.00     0.277 C 
ATOM     92  N   CYS    11     -23.039  -8.556   9.731  1.00  0.00    -0.228 NA
ATOM     93  O   GLY    10     -23.640 -10.724   9.908  1.00  0.00    -0.268 OA
BRANCH  92  94
ATOM     94  CA  CYS    11     -24.219  -8.019   9.017  1.00  0.00     0.198 C 
BRANCH  94  95
ATOM     95  C   CYS    11     -24.100  -6.482   8.985  1.00  0.00     0.275 C 
ATOM     96  O   CYS    11     -25.121  -5.805   8.997  1.00  0.00    -0.268 OA
ATOM     97  N   GLY    12     -22.890  -5.998   8.744  1.00  0.00    -0.225 NA
BRANCH  97  98
ATOM     98  CA  GLY    12     -22.605  -4.557   8.664  1.00  0.00     0.226 C 
BRANCH  98  99
ATOM     99  C   GLY    12     -22.410  -4.028  10.104  1.00  0.00     0.211 C 
ATOM    100  O1  GLY    12     -21.908  -4.826  10.935  1.00  0.00    -0.646 OA
ATOM    101  O2  GLY    12     -22.727  -2.846  10.336  1.00  0.00    -0.646 OA
ENDBRANCH  98  99
ENDBRANCH  97  98
ENDBRANCH  94  95
BRANCH  94 102
ATOM    102  CB  CYS    11     -25.492  -8.316   9.806  1.00  0.00     0.103 C 
ATOM    103  SG  CYS    11     -26.577  -9.629   9.124  1.00  0.00    -0.080 SA
ENDBRANCH  94 102
ENDBRANCH  92  94
ENDBRANCH  90  91
ENDBRANCH  89  90
ENDBRANCH  76  87
ENDBRANCH  74  76
ENDBRANCH  65  73
ENDBRANCH  63  65
ENDBRANCH  61  62
BRANCH  61 104
ATOM    104  CB  ASN     7     -14.024 -14.556  10.202  1.00  0.00     0.126 C 
BRANCH 104 105
ATOM    105  CG  ASN     7     -13.969 -13.186   9.500  1.00  0.00     0.276 C 
ATOM    106  ND2 ASN     7     -12.984 -13.013   8.649  1.00  0.00    -0.107 N 
ATOM    107  OD1 ASN     7     -14.665 -12.221   9.789  1.00  0.00    -0.269 OA
ENDBRANCH 104 105
ENDBRANCH  61 104
ENDBRANCH  59  61
ENDBRANCH   1  58
TORSDOF 42
ENDMDL
