REMARK  26 active torsions:
REMARK  status: ('A' for Active; 'I' for Inactive)
REMARK    1  A    between atoms: CA_2  and  C_8 
REMARK    2  A    between atoms: CA_2  and  CB_3 
REMARK    3  A    between atoms: CB_3  and  CG_4 
REMARK    4  A    between atoms: CG_4  and  CD_5 
REMARK       I    between atoms: C_8  and  N_10 
REMARK    5  A    between atoms: N_10  and  CA_11 
REMARK    6  A    between atoms: CA_11  and  C_12 
REMARK       I    between atoms: C_12  and  N_14 
REMARK    7  A    between atoms: N_14  and  CA_15 
REMARK    8  A    between atoms: CA_15  and  CB_16 
REMARK    9  A    between atoms: CA_15  and  C_20 
REMARK   10  A    between atoms: CB_16  and  CG_17 
REMARK       I    between atoms: C_20  and  N_22 
REMARK   11  A    between atoms: N_22  and  CA_23 
REMARK   12  A    between atoms: CA_23  and  CB_24 
REMARK   13  A    between atoms: CA_23  and  C_28 
REMARK   14  A    between atoms: CB_24  and  CG_25 
REMARK       I    between atoms: C_28  and  N_30 
REMARK   15  A    between atoms: N_30  and  CA_31 
REMARK   16  A    between atoms: CA_31  and  CB_32 
REMARK   17  A    between atoms: CA_31  and  C_39 
REMARK   18  A    between atoms: CB_32  and  CG_33 
REMARK   19  A    between atoms: CG_33  and  CD_34 
REMARK   20  A    between atoms: CD_34  and  NE_35 
REMARK       I    between atoms: C_39  and  N_41 
REMARK   21  A    between atoms: CA_42  and  C_46 
REMARK       I    between atoms: C_46  and  N_48 
REMARK   22  A    between atoms: N_48  and  CA_49 
REMARK   23  A    between atoms: CA_49  and  C_52 
REMARK   24  A    between atoms: CA_49  and  CB_50 
REMARK       I    between atoms: C_52  and  N_54 
REMARK   25  A    between atoms: N_54  and  CA_55 
REMARK   26  A    between atoms: CA_55  and  C_56 
ROOT
ATOM      1  C   ASN     4      25.100  28.810  28.960  1.00  0.00     0.275 C 
ATOM      2  O   ASN     4      24.550  29.000  30.040  1.00  0.00    -0.268 OA
ATOM      3  N   ARG     5      26.410  28.560  28.850  1.00  0.00    -0.229 NA
ENDROOT
BRANCH   1   4
ATOM      4  CA  ASN     4      24.250  28.560  27.690  1.00  0.00     0.196 C 
BRANCH   4   5
ATOM      5  CB  ASN     4      23.620  27.180  27.910  1.00  0.00     0.126 C 
BRANCH   5   6
ATOM      6  CG  ASN     4      22.820  26.550  26.760  1.00  0.00     0.276 C 
ATOM      7  OD1 ASN     4      23.350  26.070  25.750  1.00  0.00    -0.269 OA
ATOM      8  ND2 ASN     4      21.600  26.200  27.080  1.00  0.00    -0.107 N 
ENDBRANCH   5   6
ENDBRANCH   4   5
BRANCH   4   9
ATOM      9  N   ASN     4      25.040  28.570  26.440  1.00  0.00    -0.228 NA
ATOM     10  C   LEU     3      25.080  29.530  25.520  1.00  0.00     0.274 C 
ATOM     11  O   LEU     3      24.220  30.410  25.470  1.00  0.00    -0.268 OA
BRANCH  10  12
ATOM     12  CA  LEU     3      25.990  29.280  24.290  1.00  0.00     0.186 C 
BRANCH  12  13
ATOM     13  N   LEU     3      27.060  28.250  24.360  1.00  0.00    -0.229 NA
ATOM     14  C   GLY     2      27.960  28.040  25.330  1.00  0.00     0.277 C 
ATOM     15  O   GLY     2      27.930  28.550  26.440  1.00  0.00    -0.268 OA
BRANCH  14  16
ATOM     16  CA  GLY     2      28.790  26.760  25.090  1.00  0.00     0.218 C 
BRANCH  16  17
ATOM     17  N   GLY     2      28.170  25.450  25.450  1.00  0.00    -0.226 NA
ATOM     18  C   GLU     1      26.950  25.280  25.970  1.00  0.00     0.289 C 
ATOM     19  O   GLU     1      26.300  26.160  26.480  1.00  0.00    -0.268 OA
BRANCH  18  20
ATOM     20  CA  GLU     1      26.350  23.870  26.080  1.00  0.00     0.381 C 
ATOM     21  N   GLU     1      25.630  23.460  24.860  1.00  0.00     0.626 N 
BRANCH  20  22
ATOM     22  CB  GLU     1      27.430  22.880  26.470  1.00  0.00     0.060 C 
BRANCH  22  23
ATOM     23  CG  GLU     1      26.870  21.510  26.810  1.00  0.00     0.100 C 
BRANCH  23  24
ATOM     24  CD  GLU     1      27.880  20.880  27.750  1.00  0.00     0.185 C 
ATOM     25  OE2 GLU     1      27.540  20.840  28.950  1.00  0.00    -0.647 OA
ATOM     26  OE1 GLU     1      29.050  20.790  27.330  1.00  0.00    -0.647 OA
ENDBRANCH  23  24
ENDBRANCH  22  23
ENDBRANCH  20  22
ENDBRANCH  18  20
ENDBRANCH  16  17
ENDBRANCH  14  16
ENDBRANCH  12  13
BRANCH  12  27
ATOM     27  CB  LEU     3      25.070  28.880  23.120  1.00  0.00     0.034 C 
BRANCH  27  28
ATOM     28  CG  LEU     3      25.780  28.690  21.770  1.00  0.00     0.002 C 
ATOM     29  CD1 LEU     3      24.820  28.050  20.770  1.00  0.00     0.000 C 
ATOM     30  CD2 LEU     3      26.310  30.020  21.220  1.00  0.00     0.000 C 
ENDBRANCH  27  28
ENDBRANCH  12  27
ENDBRANCH  10  12
ENDBRANCH   4   9
ENDBRANCH   1   4
BRANCH   3  31
ATOM     31  CA  ARG     5      27.340  28.610  30.000  1.00  0.00     0.185 C 
BRANCH  31  32
ATOM     32  CB  ARG     5      28.530  27.660  29.730  1.00  0.00     0.036 C 
BRANCH  32  33
ATOM     33  CG  ARG     5      28.210  26.170  29.860  1.00  0.00     0.029 C 
BRANCH  33  34
ATOM     34  CD  ARG     5      29.500  25.380  29.640  1.00  0.00     0.145 C 
BRANCH  34  35
ATOM     35  NE  ARG     5      29.350  23.940  29.920  1.00  0.00    -0.083 NA
ATOM     36  CZ  ARG     5      30.350  23.030  29.840  1.00  0.00     0.782 C 
ATOM     37  NH1 ARG     5      31.580  23.370  29.460  1.00  0.00     0.063 N 
ATOM     38  NH2 ARG     5      30.100  21.740  30.080  1.00  0.00     0.063 N 
ENDBRANCH  34  35
ENDBRANCH  33  34
ENDBRANCH  32  33
ENDBRANCH  31  32
BRANCH  31  39
ATOM     39  C   ARG     5      27.890  30.040  30.140  1.00  0.00     0.256 C 
ATOM     40  O   ARG     5      28.290  30.580  29.120  1.00  0.00    -0.270 OA
ATOM     41  N   PRO     6      28.120  30.530  31.380  1.00  0.00    -0.312 N 
ATOM     42  CD  PRO     6      27.910  29.790  32.640  1.00  0.00     0.105 C 
ATOM     43  CA  PRO     6      28.590  31.910  31.670  1.00  0.00     0.165 C 
ATOM     44  CG  PRO     6      28.520  30.680  33.720  1.00  0.00     0.027 C 
ATOM     45  CB  PRO     6      28.320  32.080  33.170  1.00  0.00     0.034 C 
BRANCH  43  46
ATOM     46  C   PRO     6      30.040  32.250  31.280  1.00  0.00     0.272 C 
ATOM     47  N   SER     7      30.390  31.860  30.050  1.00  0.00    -0.226 NA
ATOM     48  O   PRO     6      30.860  32.670  32.090  1.00  0.00    -0.269 OA
BRANCH  47  49
ATOM     49  CA  SER     7      31.640  32.190  29.340  1.00  0.00     0.219 C 
BRANCH  49  50
ATOM     50  C   SER     7      31.370  32.640  27.880  1.00  0.00     0.277 C 
ATOM     51  N   GLY     8      30.140  33.100  27.680  1.00  0.00    -0.225 NA
ATOM     52  O   SER     7      32.150  32.340  26.980  1.00  0.00    -0.268 OA
BRANCH  51  53
ATOM     53  CA  GLY     8      29.580  33.700  26.470  1.00  0.00     0.226 C 
BRANCH  53  54
ATOM     54  C   GLY     8      28.180  34.130  26.930  1.00  0.00     0.211 C 
ATOM     55  O1  GLY     8      27.960  35.360  26.960  1.00  0.00    -0.646 OA
ATOM     56  O2  GLY     8      27.560  33.290  27.630  1.00  0.00    -0.646 OA
ENDBRANCH  53  54
ENDBRANCH  51  53
ENDBRANCH  49  50
BRANCH  49  57
ATOM     57  CB  SER     7      32.590  30.990  29.350  1.00  0.00     0.216 C 
ATOM     58  OG  SER     7      32.070  29.920  28.530  1.00  0.00    -0.218 OA
ENDBRANCH  49  57
ENDBRANCH  47  49
ENDBRANCH  43  46
ENDBRANCH  31  39
ENDBRANCH   3  31
TORSDOF 26
